Invalid MIT-MAGIC-COOKIE-1 key/*---------------------------------------------------------------------------*\
  =========                 |
  \\      /  F ield         | OpenFOAM: The Open Source CFD Toolbox
   \\    /   O peration     | Website:  https://openfoam.org
    \\  /    A nd           | Version:  9
     \\/     M anipulation  |
\*---------------------------------------------------------------------------*/
Build  : 9-b456138dc4bc
Exec   : interFoam -parallel
Date   : Apr 20 2022
Time   : 17:46:48
Host   : "acl"
PID    : 3337254
I/O    : uncollated
Case   : /home/palmeida/Documents/banana
nProcs : 8
Slaves : 
7
(
"acl.3337255"
"acl.3337256"
"acl.3337257"
"acl.3337258"
"acl.3337259"
"acl.3337260"
"acl.3337261"
)

Pstream initialised with:
    floatTransfer      : 0
    nProcsSimpleSum    : 0
    commsType          : nonBlocking
    polling iterations : 0
sigFpe : Enabling floating point exception trapping (FOAM_SIGFPE).
fileModificationChecking : Monitoring run-time modified files using timeStampMaster (fileModificationSkew 10)
allowSystemOperations : Allowing user-supplied system call operations

// * * * * * * * * * * * * * * * * * * * * * * * * * * * * * * * * * * * * * //
Create time

Create mesh for time = 0

Selecting dynamicFvMesh dynamicMotionSolverFvMesh
Selecting motion solver: rigidBodyMotion
Selecting rigidBodySolver Newmark

PIMPLE: No convergence criteria found


PIMPLE: No corrector convergence criteria found
        Calculations will do 3 corrections


PIMPLE: Operating solver in transient mode with 3 outer correctors


Reading field p_rgh

Reading field U

Reading/calculating face flux field phi

Reading transportProperties

Selecting incompressible transport model Newtonian
Selecting incompressible transport model Newtonian
No phase change: phaseChangeProperties not found
Selecting phaseChange model none
Selecting turbulence model type RAS
Selecting RAS turbulence model kOmegaSST
Selecting patchDistMethod meshWave
RAS
{
    model           kOmegaSST;
    turbulence      on;
    printCoeffs     on;
    alphaK1         0.85;
    alphaK2         1;
    alphaOmega1     0.5;
    alphaOmega2     0.856;
    gamma1          0.555556;
    gamma2          0.44;
    beta1           0.075;
    beta2           0.0828;
    betaStar        0.09;
    a1              0.31;
    b1              1;
    c1              10;
    F3              false;
}


Reading g

Reading hRef
Calculating field g.h

No MRF models present

No fvModels present
No fvConstraints present
GAMG:  Solving for pcorr, Initial residual = 1, Final residual = 0.000922288, No Iterations 25
time step continuity errors : sum local = 1.79477e-10, global = -2.60744e-14, cumulative = -2.60744e-14
Constructing face velocity Uf

Courant Number mean: 3.23729e-05 max: 0.0116448
Reading surface description:
    interface

forces forces:
    Not including porosity effects

Starting time loop

forces forces write:
    sum of forces:
        pressure : (-0.069481 1240.75 4117.6)
        viscous  : (-0.345701 0.000671509 -0.00198432)
        porous   : (0 0 0)
    sum of moments:
        pressure : (-1019.46 519.464 -177.501)
        viscous  : (0.00128241 -0.00339789 -0.0960976)
        porous   : (0 0 0)

Courant Number mean: 3.23729e-05 max: 0.0116448
Interface Courant Number mean: 6.71541e-07 max: 0.00813129
deltaT = 0.000119904
Time = 0.000119904

PIMPLE: Iteration 1
Rigid-body motion of the hull
    Centre of rotation: (2.92954 0 0.2)
    Orientation: (1 0 -1.96411e-08 0 1 0 1.96411e-08 0 1)
    Linear velocity: (0 0 3.99262e-06)
    Angular velocity: (0 0.000327613 0)
GAMG:  Solving for pcorr, Initial residual = 1, Final residual = 0.000922371, No Iterations 25
time step continuity errors : sum local = 2.15192e-10, global = -2.72635e-14, cumulative = -5.33379e-14
smoothSolver:  Solving for alpha.water, Initial residual = 2.74503e-07, Final residual = 6.0604e-12, No Iterations 1
Phase-1 volume fraction = 0.812244  Min(alpha.water) = 0  Max(alpha.water) = 1
MULES: Correcting alpha.water
MULES: Correcting alpha.water
MULES: Correcting alpha.water
Phase-1 volume fraction = 0.812244  Min(alpha.water) = -3.23842e-12  Max(alpha.water) = 1
GAMG:  Solving for p_rgh, Initial residual = 1, Final residual = 4.99206e-08, No Iterations 96
time step continuity errors : sum local = 8.7104e-14, global = -2.77677e-15, cumulative = -5.61147e-14
PIMPLE: Iteration 2
Rigid-body motion of the hull
    Centre of rotation: (2.92954 0 0.2)
    Orientation: (1 0 6.69459e-08 0 1 0 -6.69459e-08 0 1)
    Linear velocity: (-2.58494e-26 0 -0.0023383)
    Angular velocity: (0 -0.00111666 0)
GAMG:  Solving for pcorr, Initial residual = 1, Final residual = 0.000872982, No Iterations 17
time step continuity errors : sum local = 1.15492e-13, global = -4.36684e-15, cumulative = -6.04815e-14
smoothSolver:  Solving for alpha.water, Initial residual = 1.85349e-07, Final residual = 4.61394e-12, No Iterations 1
Phase-1 volume fraction = 0.812244  Min(alpha.water) = -2.47484e-23  Max(alpha.water) = 1
Applying the previous iteration compression flux
MULES: Correcting alpha.water
MULES: Correcting alpha.water
MULES: Correcting alpha.water
MULES: Correcting alpha.water
Phase-1 volume fraction = 0.812244  Min(alpha.water) = -2.75202e-11  Max(alpha.water) = 1
GAMG:  Solving for p_rgh, Initial residual = 0.00176682, Final residual = 4.94693e-08, No Iterations 33
time step continuity errors : sum local = 1.6555e-12, global = -4.78989e-14, cumulative = -1.0838e-13
PIMPLE: Iteration 3
Rigid-body motion of the hull
    Centre of rotation: (2.92954 0 0.2)
    Orientation: (1 0 5.50636e-09 0 1 0 -5.50636e-09 0 1)
    Linear velocity: (0 0 -0.00249165)
    Angular velocity: (0 -9.18461e-05 0)
GAMG:  Solving for pcorr, Initial residual = 1, Final residual = 0.000941763, No Iterations 42
time step continuity errors : sum local = 6.75705e-14, global = 1.28381e-15, cumulative = -1.07097e-13
smoothSolver:  Solving for alpha.water, Initial residual = 1.90067e-07, Final residual = 4.73727e-12, No Iterations 1
Phase-1 volume fraction = 0.812244  Min(alpha.water) = -7.14027e-24  Max(alpha.water) = 1
Applying the previous iteration compression flux
MULES: Correcting alpha.water
MULES: Correcting alpha.water
MULES: Correcting alpha.water
MULES: Correcting alpha.water
Phase-1 volume fraction = 0.812244  Min(alpha.water) = -1.42594e-11  Max(alpha.water) = 1
GAMG:  Solving for p_rgh, Initial residual = 7.02672e-05, Final residual = 4.14149e-08, No Iterations 11
time step continuity errors : sum local = 1.06614e-12, global = 3.25827e-14, cumulative = -7.45139e-14
smoothSolver:  Solving for omega, Initial residual = 1.45639e-05, Final residual = 6.20403e-12, No Iterations 1
smoothSolver:  Solving for k, Initial residual = 1, Final residual = 2.88694e-11, No Iterations 2
ExecutionTime = 22.82 s  ClockTime = 23 s

forces forces write:
    sum of forces:
        pressure : (-25310.2 -8589.69 -24281.6)
        viscous  : (-0.325542 -0.00199473 0.00178922)
        porous   : (0 0 0)
    sum of moments:
        pressure : (4723 54762.7 19390.2)
        viscous  : (0.00095335 -0.0168046 -0.088314)
        porous   : (0 0 0)

Courant Number mean: 3.89882e-05 max: 0.0306726
Interface Courant Number mean: 8.26567e-07 max: 0.0153094
deltaT = 0.000143712
Time = 0.000263616

PIMPLE: Iteration 1
Rigid-body motion of the hull
    Centre of rotation: (2.92954 0 0.199999)
    Orientation: (1 0 5.67203e-08 0 1 0 -5.67203e-08 0 1)
    Linear velocity: (0 0 -0.00924133)
    Angular velocity: (0 -0.000620882 0)
GAMG:  Solving for pcorr, Initial residual = 1, Final residual = 0.000891055, No Iterations 21
time step continuity errors : sum local = 2.36328e-13, global = -9.79181e-15, cumulative = -8.43057e-14
smoothSolver:  Solving for alpha.water, Initial residual = 3.2983e-07, Final residual = 8.63828e-12, No Iterations 1
Phase-1 volume fraction = 0.812244  Min(alpha.water) = -1.32824e-20  Max(alpha.water) = 1
Applying the previous iteration compression flux
MULES: Correcting alpha.water
MULES: Correcting alpha.water
MULES: Correcting alpha.water
MULES: Correcting alpha.water
Phase-1 volume fraction = 0.812244  Min(alpha.water) = -1.65561e-13  Max(alpha.water) = 1
GAMG:  Solving for p_rgh, Initial residual = 0.00803114, Final residual = 4.58377e-08, No Iterations 50
time step continuity errors : sum local = 1.89698e-12, global = 7.97182e-14, cumulative = -4.5875e-15
PIMPLE: Iteration 2
Rigid-body motion of the hull
    Centre of rotation: (2.92954 0 0.199999)
    Orientation: (1 0 -1.76439e-07 0 1 0 1.76439e-07 0 1)
    Linear velocity: (2.06795e-25 0 -0.00576042)
    Angular velocity: (0 0.00262393 0)
GAMG:  Solving for pcorr, Initial residual = 1, Final residual = 0.000989136, No Iterations 19
time step continuity errors : sum local = 2.72336e-13, global = 7.53432e-15, cumulative = 2.94682e-15
smoothSolver:  Solving for alpha.water, Initial residual = 2.27762e-07, Final residual = 6.78693e-12, No Iterations 1
Phase-1 volume fraction = 0.812244  Min(alpha.water) = -1.32827e-20  Max(alpha.water) = 1
Applying the previous iteration compression flux
MULES: Correcting alpha.water
MULES: Correcting alpha.water
MULES: Correcting alpha.water
MULES: Correcting alpha.water
Phase-1 volume fraction = 0.812244  Min(alpha.water) = -5.47899e-13  Max(alpha.water) = 1
GAMG:  Solving for p_rgh, Initial residual = 0.00386767, Final residual = 4.67962e-08, No Iterations 44
time step continuity errors : sum local = 9.79463e-13, global = 3.27617e-14, cumulative = 3.57085e-14
PIMPLE: Iteration 3
Rigid-body motion of the hull
    Centre of rotation: (2.92954 0 0.199999)
    Orientation: (1 0 -4.41901e-08 0 1 0 4.41901e-08 0 1)
    Linear velocity: (0 0 -0.00616971)
    Angular velocity: (0 0.000783456 0)
GAMG:  Solving for pcorr, Initial residual = 1, Final residual = 0.000979127, No Iterations 29
time step continuity errors : sum local = 1.2755e-13, global = -4.4744e-15, cumulative = 3.12341e-14
smoothSolver:  Solving for alpha.water, Initial residual = 2.27438e-07, Final residual = 6.7887e-12, No Iterations 1
Phase-1 volume fraction = 0.812244  Min(alpha.water) = -1.32827e-20  Max(alpha.water) = 1
Applying the previous iteration compression flux
MULES: Correcting alpha.water
MULES: Correcting alpha.water
MULES: Correcting alpha.water
MULES: Correcting alpha.water
Phase-1 volume fraction = 0.812244  Min(alpha.water) = -6.76569e-14  Max(alpha.water) = 1
GAMG:  Solving for p_rgh, Initial residual = 0.000514923, Final residual = 4.7848e-08, No Iterations 22
time step continuity errors : sum local = 2.3883e-13, global = -1.09606e-14, cumulative = 2.02735e-14
smoothSolver:  Solving for omega, Initial residual = 1.74639e-05, Final residual = 8.86728e-12, No Iterations 1
smoothSolver:  Solving for k, Initial residual = 0.272273, Final residual = 1.01583e-11, No Iterations 2
ExecutionTime = 40.52 s  ClockTime = 41 s

forces forces write:
    sum of forces:
        pressure : (-1130.37 2717.47 12629.1)
        viscous  : (-0.326709 -0.00305459 0.00267018)
        porous   : (0 0 0)
    sum of moments:
        pressure : (-2994.23 -4730.93 1605.05)
        viscous  : (0.000264299 -0.0242024 -0.0921374)
        porous   : (0 0 0)

Courant Number mean: 4.67388e-05 max: 0.0366828
Interface Courant Number mean: 9.90066e-07 max: 0.0270453
deltaT = 0.000172256
Time = 0.000435873

PIMPLE: Iteration 1
Rigid-body motion of the hull
    Centre of rotation: (2.92954 0 0.199998)
    Orientation: (1 0 -4.46561e-07 0 1 0 4.46561e-07 0 1)
    Linear velocity: (0 0 -0.00677552)
    Angular velocity: (0 0.00388832 0)
GAMG:  Solving for pcorr, Initial residual = 1, Final residual = 0.000960669, No Iterations 18
time step continuity errors : sum local = 2.1868e-13, global = 1.0432e-14, cumulative = 3.07055e-14
smoothSolver:  Solving for alpha.water, Initial residual = 3.95142e-07, Final residual = 1.24081e-11, No Iterations 1
Phase-1 volume fraction = 0.812244  Min(alpha.water) = -8.41673e-15  Max(alpha.water) = 1
Applying the previous iteration compression flux
MULES: Correcting alpha.water
MULES: Correcting alpha.water
MULES: Correcting alpha.water
MULES: Correcting alpha.water
Phase-1 volume fraction = 0.812244  Min(alpha.water) = -8.46422e-17  Max(alpha.water) = 1
GAMG:  Solving for p_rgh, Initial residual = 0.000796097, Final residual = 4.98986e-08, No Iterations 31
time step continuity errors : sum local = 7.62736e-13, global = 3.26991e-14, cumulative = 6.34046e-14
PIMPLE: Iteration 2
Rigid-body motion of the hull
    Centre of rotation: (2.92954 0 0.199998)
    Orientation: (1 0 -2.00987e-07 0 1 0 2.00987e-07 0 1)
    Linear velocity: (0 0 -0.00840076)
    Angular velocity: (0 0.00103706 0)
GAMG:  Solving for pcorr, Initial residual = 1, Final residual = 0.000921868, No Iterations 19
time step continuity errors : sum local = 2.29087e-13, global = -8.9921e-15, cumulative = 5.44125e-14
smoothSolver:  Solving for alpha.water, Initial residual = 2.72481e-07, Final residual = 9.73854e-12, No Iterations 1
Phase-1 volume fraction = 0.812244  Min(alpha.water) = -1.27368e-19  Max(alpha.water) = 1
Applying the previous iteration compression flux
MULES: Correcting alpha.water
MULES: Correcting alpha.water
MULES: Correcting alpha.water
MULES: Correcting alpha.water
Phase-1 volume fraction = 0.812244  Min(alpha.water) = -1.1598e-12  Max(alpha.water) = 1
GAMG:  Solving for p_rgh, Initial residual = 0.000107541, Final residual = 4.15935e-08, No Iterations 14
time step continuity errors : sum local = 6.8304e-13, global = -2.89451e-14, cumulative = 2.54674e-14
PIMPLE: Iteration 3
Rigid-body motion of the hull
    Centre of rotation: (2.92954 0 0.199998)
    Orientation: (1 0 -3.04509e-07 0 1 0 3.04509e-07 0 1)
    Linear velocity: (0 0 -0.00744141)
    Angular velocity: (0 0.002239 0)
GAMG:  Solving for pcorr, Initial residual = 1, Final residual = 0.000909662, No Iterations 18
time step continuity errors : sum local = 1.0542e-13, global = 4.25527e-15, cumulative = 2.97226e-14
smoothSolver:  Solving for alpha.water, Initial residual = 2.72239e-07, Final residual = 9.74049e-12, No Iterations 1
Phase-1 volume fraction = 0.812244  Min(alpha.water) = -1.86884e-15  Max(alpha.water) = 1
Applying the previous iteration compression flux
MULES: Correcting alpha.water
MULES: Correcting alpha.water
MULES: Correcting alpha.water
MULES: Correcting alpha.water
Phase-1 volume fraction = 0.812244  Min(alpha.water) = -4.3581e-15  Max(alpha.water) = 1
GAMG:  Solving for p_rgh, Initial residual = 6.94094e-05, Final residual = 4.99417e-08, No Iterations 11
time step continuity errors : sum local = 5.69109e-13, global = 3.15521e-14, cumulative = 6.12748e-14
smoothSolver:  Solving for omega, Initial residual = 2.09407e-05, Final residual = 1.28414e-11, No Iterations 1
smoothSolver:  Solving for k, Initial residual = 0.184743, Final residual = 9.64744e-12, No Iterations 2
ExecutionTime = 55.08 s  ClockTime = 55 s

forces forces write:
    sum of forces:
        pressure : (-669.384 111.568 -1550.32)
        viscous  : (-0.32945 -0.00235548 -0.00229422)
        porous   : (0 0 0)
    sum of moments:
        pressure : (148.386 -7712.5 1844.76)
        viscous  : (0.00154786 -0.0339913 -0.0950911)
        porous   : (0 0 0)

Courant Number mean: 5.60372e-05 max: 0.0453307
Interface Courant Number mean: 1.18506e-06 max: 0.0318561
deltaT = 0.000206565
Time = 0.000642437

PIMPLE: Iteration 1
Rigid-body motion of the hull
    Centre of rotation: (2.92954 0 0.199996)
    Orientation: (1 0 -7.6512e-07 0 1 0 7.6512e-07 0 1)
    Linear velocity: (0 0 -0.0088448)
    Angular velocity: (0 0.00222073 0)
GAMG:  Solving for pcorr, Initial residual = 1, Final residual = 0.000871838, No Iterations 19
time step continuity errors : sum local = 9.29006e-14, global = 7.14409e-15, cumulative = 6.84189e-14
smoothSolver:  Solving for alpha.water, Initial residual = 4.73531e-07, Final residual = 1.78265e-11, No Iterations 1
Phase-1 volume fraction = 0.812244  Min(alpha.water) = -1.27041e-19  Max(alpha.water) = 1
Applying the previous iteration compression flux
MULES: Correcting alpha.water
MULES: Correcting alpha.water
MULES: Correcting alpha.water
MULES: Correcting alpha.water
Phase-1 volume fraction = 0.812244  Min(alpha.water) = -2.42001e-16  Max(alpha.water) = 1
GAMG:  Solving for p_rgh, Initial residual = 0.00131156, Final residual = 4.68481e-08, No Iterations 24
time step continuity errors : sum local = 4.61654e-13, global = 1.07609e-15, cumulative = 6.9495e-14
PIMPLE: Iteration 2
Rigid-body motion of the hull
    Centre of rotation: (2.92954 0 0.199996)
    Orientation: (1 0 -7.64698e-07 0 1 0 7.64698e-07 0 1)
    Linear velocity: (-8.27181e-25 0 -0.00886488)
    Angular velocity: (0 0.00221664 0)
GAMG:  Solving for pcorr, Initial residual = 1, Final residual = 0.000962738, No Iterations 55
time step continuity errors : sum local = 5.91004e-15, global = 2.61771e-17, cumulative = 6.95211e-14
smoothSolver:  Solving for alpha.water, Initial residual = 3.26367e-07, Final residual = 1.39921e-11, No Iterations 1
Phase-1 volume fraction = 0.812244  Min(alpha.water) = -1.27044e-19  Max(alpha.water) = 1
Applying the previous iteration compression flux
MULES: Correcting alpha.water
MULES: Correcting alpha.water
MULES: Correcting alpha.water
MULES: Correcting alpha.water
Phase-1 volume fraction = 0.812244  Min(alpha.water) = -1.44602e-13  Max(alpha.water) = 1
GAMG:  Solving for p_rgh, Initial residual = 7.01315e-05, Final residual = 3.76078e-08, No Iterations 8
time step continuity errors : sum local = 3.54111e-13, global = -6.04531e-15, cumulative = 6.34758e-14
PIMPLE: Iteration 3
Rigid-body motion of the hull
    Centre of rotation: (2.92954 0 0.199996)
    Orientation: (1 0 -7.66061e-07 0 1 0 7.66061e-07 0 1)
    Linear velocity: (-8.27181e-25 0 -0.00886825)
    Angular velocity: (0 0.00222984 0)
GAMG:  Solving for pcorr, Initial residual = 1, Final residual = 0.000978768, No Iterations 45
time step continuity errors : sum local = 6.00328e-15, global = 5.29628e-17, cumulative = 6.35288e-14
smoothSolver:  Solving for alpha.water, Initial residual = 3.25989e-07, Final residual = 1.39893e-11, No Iterations 1
Phase-1 volume fraction = 0.812244  Min(alpha.water) = -1.40533e-19  Max(alpha.water) = 1
Applying the previous iteration compression flux
MULES: Correcting alpha.water
MULES: Correcting alpha.water
MULES: Correcting alpha.water
MULES: Correcting alpha.water
Phase-1 volume fraction = 0.812244  Min(alpha.water) = -1.52026e-16  Max(alpha.water) = 1
GAMG:  Solving for p_rgh, Initial residual = 5.3634e-06, Final residual = 3.86578e-08, No Iterations 4
time step continuity errors : sum local = 3.61092e-13, global = 1.23343e-14, cumulative = 7.5863e-14
smoothSolver:  Solving for omega, Initial residual = 2.51162e-05, Final residual = 1.86154e-11, No Iterations 1
smoothSolver:  Solving for k, Initial residual = 0.145489, Final residual = 1.0899e-11, No Iterations 2
ExecutionTime = 71.46 s  ClockTime = 72 s

forces forces write:
    sum of forces:
        pressure : (-345.548 563.176 320.336)
        viscous  : (-0.330998 -0.00190399 -0.00552829)
        porous   : (0 0 0)
    sum of moments:
        pressure : (-246.108 -3976.32 905.946)
        viscous  : (0.00239961 -0.0402029 -0.0966144)
        porous   : (0 0 0)

Courant Number mean: 6.72139e-05 max: 0.0558839
Interface Courant Number mean: 1.4191e-06 max: 0.0371819
deltaT = 0.000247774
Time = 0.000890212

PIMPLE: Iteration 1
Rigid-body motion of the hull
    Centre of rotation: (2.92954 0 0.199994)
    Orientation: (1 0 -1.21817e-06 0 1 0 1.21817e-06 0 1)
    Linear velocity: (0 0 -0.0110264)
    Angular velocity: (0 0.0014195 0)
GAMG:  Solving for pcorr, Initial residual = 1, Final residual = 0.000909642, No Iterations 18
time step continuity errors : sum local = 2.43086e-13, global = -1.81777e-14, cumulative = 5.76853e-14
smoothSolver:  Solving for alpha.water, Initial residual = 5.67655e-07, Final residual = 2.56315e-11, No Iterations 1
Phase-1 volume fraction = 0.812244  Min(alpha.water) = -1.26657e-19  Max(alpha.water) = 1
Applying the previous iteration compression flux
MULES: Correcting alpha.water
MULES: Correcting alpha.water
MULES: Correcting alpha.water
MULES: Correcting alpha.water
Phase-1 volume fraction = 0.812244  Min(alpha.water) = -2.72733e-12  Max(alpha.water) = 1
GAMG:  Solving for p_rgh, Initial residual = 0.00135365, Final residual = 4.96784e-08, No Iterations 21
time step continuity errors : sum local = 6.65372e-13, global = -2.78372e-14, cumulative = 2.98481e-14
PIMPLE: Iteration 2
Rigid-body motion of the hull
    Centre of rotation: (2.92954 0 0.199994)
    Orientation: (1 0 -1.51159e-06 0 1 0 1.51159e-06 0 1)
    Linear velocity: (0 0 -0.00948152)
    Angular velocity: (0 0.00378798 0)
GAMG:  Solving for pcorr, Initial residual = 1, Final residual = 0.000936834, No Iterations 17
time step continuity errors : sum local = 2.79074e-13, global = 1.19521e-14, cumulative = 4.18002e-14
smoothSolver:  Solving for alpha.water, Initial residual = 3.91004e-07, Final residual = 2.01174e-11, No Iterations 1
Phase-1 volume fraction = 0.812244  Min(alpha.water) = -1.26662e-19  Max(alpha.water) = 1
Applying the previous iteration compression flux
MULES: Correcting alpha.water
MULES: Correcting alpha.water
MULES: Correcting alpha.water
MULES: Correcting alpha.water
Phase-1 volume fraction = 0.812244  Min(alpha.water) = -3.73445e-14  Max(alpha.water) = 1
GAMG:  Solving for p_rgh, Initial residual = 6.11131e-05, Final residual = 3.90553e-08, No Iterations 12
time step continuity errors : sum local = 1.06643e-12, global = 6.13507e-14, cumulative = 1.03151e-13
PIMPLE: Iteration 3
Rigid-body motion of the hull
    Centre of rotation: (2.92954 0 0.199994)
    Orientation: (1 0 -1.38495e-06 0 1 0 1.38495e-06 0 1)
    Linear velocity: (-1.65436e-24 0 -0.0101882)
    Angular velocity: (0 0.00276577 0)
GAMG:  Solving for pcorr, Initial residual = 1, Final residual = 0.000788466, No Iterations 17
time step continuity errors : sum local = 1.04581e-13, global = -4.96691e-15, cumulative = 9.8184e-14
smoothSolver:  Solving for alpha.water, Initial residual = 3.90571e-07, Final residual = 2.01075e-11, No Iterations 1
Phase-1 volume fraction = 0.812244  Min(alpha.water) = -1.22427e-18  Max(alpha.water) = 1
Applying the previous iteration compression flux
MULES: Correcting alpha.water
MULES: Correcting alpha.water
MULES: Correcting alpha.water
MULES: Correcting alpha.water
Phase-1 volume fraction = 0.812244  Min(alpha.water) = -9.34676e-14  Max(alpha.water) = 1
GAMG:  Solving for p_rgh, Initial residual = 6.11734e-05, Final residual = 3.89116e-08, No Iterations 11
time step continuity errors : sum local = 5.90838e-13, global = -3.99607e-14, cumulative = 5.82233e-14
smoothSolver:  Solving for omega, Initial residual = 3.0127e-05, Final residual = 2.70315e-11, No Iterations 1
smoothSolver:  Solving for k, Initial residual = 0.123384, Final residual = 1.33491e-11, No Iterations 2
ExecutionTime = 85.32 s  ClockTime = 85 s

forces forces write:
    sum of forces:
        pressure : (-159.64 1608.44 5547.25)
        viscous  : (-0.330984 -0.00241536 -0.00441531)
        porous   : (0 0 0)
    sum of moments:
        pressure : (-1382.89 -804.353 168.205)
        viscous  : (0.00204733 -0.0410135 -0.0973039)
        porous   : (0 0 0)

Courant Number mean: 8.06424e-05 max: 0.0697069
Interface Courant Number mean: 1.70007e-06 max: 0.0435891
deltaT = 0.000296736
Time = 0.00118695

PIMPLE: Iteration 1
Rigid-body motion of the hull
    Centre of rotation: (2.92954 0 0.199991)
    Orientation: (1 0 -2.62105e-06 0 1 0 2.62105e-06 0 1)
    Linear velocity: (3.30872e-24 0 -0.0104301)
    Angular velocity: (0 0.00556553 0)
GAMG:  Solving for pcorr, Initial residual = 1, Final residual = 0.000816565, No Iterations 18
time step continuity errors : sum local = 3.50574e-13, global = 2.61105e-14, cumulative = 8.43338e-14
smoothSolver:  Solving for alpha.water, Initial residual = 6.79614e-07, Final residual = 3.67782e-11, No Iterations 1
Phase-1 volume fraction = 0.812244  Min(alpha.water) = -1.48829e-18  Max(alpha.water) = 1
Applying the previous iteration compression flux
MULES: Correcting alpha.water
MULES: Correcting alpha.water
MULES: Correcting alpha.water
MULES: Correcting alpha.water
Phase-1 volume fraction = 0.812244  Min(alpha.water) = -3.98021e-15  Max(alpha.water) = 1
GAMG:  Solving for p_rgh, Initial residual = 0.00132335, Final residual = 4.94634e-08, No Iterations 19
time step continuity errors : sum local = 1.07555e-12, global = 5.15423e-14, cumulative = 1.35876e-13
PIMPLE: Iteration 2
Rigid-body motion of the hull
    Centre of rotation: (2.92954 0 0.199991)
    Orientation: (1 0 -2.25768e-06 0 1 0 2.25768e-06 0 1)
    Linear velocity: (0 0 -0.0120808)
    Angular velocity: (0 0.00311641 0)
GAMG:  Solving for pcorr, Initial residual = 1, Final residual = 0.000911395, No Iterations 17
time step continuity errors : sum local = 3.37143e-13, global = -1.4454e-14, cumulative = 1.21422e-13
smoothSolver:  Solving for alpha.water, Initial residual = 4.67885e-07, Final residual = 2.88241e-11, No Iterations 1
Phase-1 volume fraction = 0.812244  Min(alpha.water) = -1.44837e-18  Max(alpha.water) = 1
Applying the previous iteration compression flux
MULES: Correcting alpha.water
MULES: Correcting alpha.water
MULES: Correcting alpha.water
MULES: Correcting alpha.water
Phase-1 volume fraction = 0.812244  Min(alpha.water) = -8.69333e-13  Max(alpha.water) = 1
GAMG:  Solving for p_rgh, Initial residual = 6.32683e-05, Final residual = 4.93056e-08, No Iterations 11
time step continuity errors : sum local = 1.84722e-12, global = -1.16864e-13, cumulative = 4.55848e-15
PIMPLE: Iteration 3
Rigid-body motion of the hull
    Centre of rotation: (2.92954 0 0.199991)
    Orientation: (1 0 -2.41898e-06 0 1 0 2.41898e-06 0 1)
    Linear velocity: (0 0 -0.0113639)
    Angular velocity: (0 0.00420356 0)
GAMG:  Solving for pcorr, Initial residual = 1, Final residual = 0.000992248, No Iterations 16
time step continuity errors : sum local = 1.65174e-13, global = 8.0733e-15, cumulative = 1.26318e-14
smoothSolver:  Solving for alpha.water, Initial residual = 4.67184e-07, Final residual = 2.88232e-11, No Iterations 1
Phase-1 volume fraction = 0.812244  Min(alpha.water) = -1.46404e-18  Max(alpha.water) = 1
Applying the previous iteration compression flux
MULES: Correcting alpha.water
MULES: Correcting alpha.water
MULES: Correcting alpha.water
MULES: Correcting alpha.water
Phase-1 volume fraction = 0.812244  Min(alpha.water) = -2.29565e-15  Max(alpha.water) = 1
GAMG:  Solving for p_rgh, Initial residual = 6.19534e-05, Final residual = 3.90118e-08, No Iterations 11
time step continuity errors : sum local = 7.44839e-13, global = 4.90505e-14, cumulative = 6.16823e-14
smoothSolver:  Solving for omega, Initial residual = 3.60754e-05, Final residual = 3.91366e-11, No Iterations 1
smoothSolver:  Solving for k, Initial residual = 0.109119, Final residual = 1.69906e-11, No Iterations 2
ExecutionTime = 99.05 s  ClockTime = 99 s

forces forces write:
    sum of forces:
        pressure : (-222.517 379.407 -749.96)
        viscous  : (-0.331021 -0.00123624 -0.00775565)
        porous   : (0 0 0)
    sum of moments:
        pressure : (-1.2988 -3276.55 701.039)
        viscous  : (0.00314509 -0.0436698 -0.0988907)
        porous   : (0 0 0)

Courant Number mean: 9.66011e-05 max: 0.0860263
Interface Courant Number mean: 2.0255e-06 max: 0.0509414
deltaT = 0.000355443
Time = 0.00154239

PIMPLE: Iteration 1
Rigid-body motion of the hull
    Centre of rotation: (2.92954 0 0.199986)
    Orientation: (1 0 -3.94356e-06 0 1 0 3.94356e-06 0 1)
    Linear velocity: (0 0 -0.0138639)
    Angular velocity: (0 0.00437492 0)
GAMG:  Solving for pcorr, Initial residual = 1, Final residual = 0.000821602, No Iterations 19
time step continuity errors : sum local = 1.78458e-13, global = 1.7405e-14, cumulative = 7.90873e-14
smoothSolver:  Solving for alpha.water, Initial residual = 8.13755e-07, Final residual = 5.27792e-11, No Iterations 1
Phase-1 volume fraction = 0.812244  Min(alpha.water) = -1.2567e-19  Max(alpha.water) = 1
Applying the previous iteration compression flux
MULES: Correcting alpha.water
MULES: Correcting alpha.water
MULES: Correcting alpha.water
MULES: Correcting alpha.water
Phase-1 volume fraction = 0.812244  Min(alpha.water) = -1.35938e-14  Max(alpha.water) = 1
GAMG:  Solving for p_rgh, Initial residual = 0.00143471, Final residual = 4.91014e-08, No Iterations 17
time step continuity errors : sum local = 1.58083e-12, global = -5.31943e-14, cumulative = 2.5893e-14
PIMPLE: Iteration 2
Rigid-body motion of the hull
    Centre of rotation: (2.92954 0 0.199986)
    Orientation: (1 0 -4.03296e-06 0 1 0 4.03296e-06 0 1)
    Linear velocity: (0 0 -0.0135295)
    Angular velocity: (0 0.00487797 0)
GAMG:  Solving for pcorr, Initial residual = 1, Final residual = 0.00099815, No Iterations 19
time step continuity errors : sum local = 9.39121e-14, global = 3.6341e-15, cumulative = 2.95271e-14
smoothSolver:  Solving for alpha.water, Initial residual = 5.59873e-07, Final residual = 4.1353e-11, No Iterations 1
Phase-1 volume fraction = 0.812244  Min(alpha.water) = -1.25675e-19  Max(alpha.water) = 1
Applying the previous iteration compression flux
MULES: Correcting alpha.water
MULES: Correcting alpha.water
MULES: Correcting alpha.water
MULES: Correcting alpha.water
Phase-1 volume fraction = 0.812244  Min(alpha.water) = -1.60421e-12  Max(alpha.water) = 1
GAMG:  Solving for p_rgh, Initial residual = 8.39069e-05, Final residual = 4.27682e-08, No Iterations 10
time step continuity errors : sum local = 9.3143e-13, global = 4.28858e-14, cumulative = 7.2413e-14
PIMPLE: Iteration 3
Rigid-body motion of the hull
    Centre of rotation: (2.92954 0 0.199986)
    Orientation: (1 0 -3.9939e-06 0 1 0 3.9939e-06 0 1)
    Linear velocity: (0 0 -0.0136774)
    Angular velocity: (0 0.00465823 0)
GAMG:  Solving for pcorr, Initial residual = 1, Final residual = 0.000839659, No Iterations 18
time step continuity errors : sum local = 3.6054e-14, global = -1.80093e-15, cumulative = 7.0612e-14
smoothSolver:  Solving for alpha.water, Initial residual = 5.5899e-07, Final residual = 4.13299e-11, No Iterations 1
Phase-1 volume fraction = 0.812244  Min(alpha.water) = -1.27524e-18  Max(alpha.water) = 1
Applying the previous iteration compression flux
MULES: Correcting alpha.water
MULES: Correcting alpha.water
MULES: Correcting alpha.water
MULES: Correcting alpha.water
Phase-1 volume fraction = 0.812244  Min(alpha.water) = -1.41746e-15  Max(alpha.water) = 1
GAMG:  Solving for p_rgh, Initial residual = 1.25691e-05, Final residual = 3.59157e-08, No Iterations 7
time step continuity errors : sum local = 1.01253e-12, global = -8.7375e-14, cumulative = -1.6763e-14
smoothSolver:  Solving for omega, Initial residual = 4.32015e-05, Final residual = 5.67776e-11, No Iterations 1
smoothSolver:  Solving for k, Initial residual = 0.0992997, Final residual = 2.23961e-11, No Iterations 2
ExecutionTime = 112.73 s  ClockTime = 113 s

forces forces write:
    sum of forces:
        pressure : (-168.894 810.507 1390.26)
        viscous  : (-0.331238 -0.00043478 -0.00948248)
        porous   : (0 0 0)
    sum of moments:
        pressure : (-465.493 -2338.19 478.4)
        viscous  : (0.00374934 -0.0461665 -0.10034)
        porous   : (0 0 0)

Courant Number mean: 0.000115743 max: 0.105564
Interface Courant Number mean: 2.4168e-06 max: 0.0596449
deltaT = 0.000426223
Time = 0.00196861

PIMPLE: Iteration 1
Rigid-body motion of the hull
    Centre of rotation: (2.92954 0 0.19998)
    Orientation: (1 0 -6.04723e-06 0 1 0 6.04723e-06 0 1)
    Linear velocity: (0 0 -0.0166142)
    Angular velocity: (0 0.00497675 0)
GAMG:  Solving for pcorr, Initial residual = 1, Final residual = 0.000879662, No Iterations 19
time step continuity errors : sum local = 2.99771e-13, global = -2.91273e-14, cumulative = -4.58903e-14
smoothSolver:  Solving for alpha.water, Initial residual = 9.75569e-07, Final residual = 7.59506e-11, No Iterations 1
Phase-1 volume fraction = 0.812244  Min(alpha.water) = -1.88767e-18  Max(alpha.water) = 1
Applying the previous iteration compression flux
MULES: Correcting alpha.water
MULES: Correcting alpha.water
MULES: Correcting alpha.water
MULES: Correcting alpha.water
Phase-1 volume fraction = 0.812244  Min(alpha.water) = -1.33603e-14  Max(alpha.water) = 1
GAMG:  Solving for p_rgh, Initial residual = 0.00211487, Final residual = 4.35397e-08, No Iterations 17
time step continuity errors : sum local = 1.56945e-12, global = -7.36805e-14, cumulative = -1.19571e-13
PIMPLE: Iteration 2
Rigid-body motion of the hull
    Centre of rotation: (2.92954 0 0.19998)
    Orientation: (1 0 -6.40332e-06 0 1 0 6.40332e-06 0 1)
    Linear velocity: (0 0 -0.0154941)
    Angular velocity: (0 0.00664765 0)
GAMG:  Solving for pcorr, Initial residual = 1, Final residual = 0.000977489, No Iterations 17
time step continuity errors : sum local = 3.54542e-13, global = 1.21172e-14, cumulative = -1.07454e-13
smoothSolver:  Solving for alpha.water, Initial residual = 6.70775e-07, Final residual = 5.94562e-11, No Iterations 1
Phase-1 volume fraction = 0.812244  Min(alpha.water) = -1.5733e-19  Max(alpha.water) = 1
Applying the previous iteration compression flux
MULES: Correcting alpha.water
MULES: Correcting alpha.water
MULES: Correcting alpha.water
MULES: Correcting alpha.water
Phase-1 volume fraction = 0.812244  Min(alpha.water) = -2.62857e-12  Max(alpha.water) = 1
GAMG:  Solving for p_rgh, Initial residual = 6.71527e-05, Final residual = 4.17892e-08, No Iterations 11
time step continuity errors : sum local = 2.01076e-12, global = 8.95201e-14, cumulative = -1.79336e-14
PIMPLE: Iteration 3
Rigid-body motion of the hull
    Centre of rotation: (2.92954 0 0.19998)
    Orientation: (1 0 -6.24685e-06 0 1 0 6.24685e-06 0 1)
    Linear velocity: (-1.32349e-23 0 -0.0159841)
    Angular velocity: (0 0.00591341 0)
GAMG:  Solving for pcorr, Initial residual = 1, Final residual = 0.000855614, No Iterations 17
time step continuity errors : sum local = 1.3877e-13, global = -5.22095e-15, cumulative = -2.31545e-14
smoothSolver:  Solving for alpha.water, Initial residual = 6.69397e-07, Final residual = 5.93999e-11, No Iterations 1
Phase-1 volume fraction = 0.812244  Min(alpha.water) = -1.33299e-17  Max(alpha.water) = 1
Applying the previous iteration compression flux
MULES: Correcting alpha.water
MULES: Correcting alpha.water
MULES: Correcting alpha.water
MULES: Correcting alpha.water
Phase-1 volume fraction = 0.812244  Min(alpha.water) = -6.15372e-15  Max(alpha.water) = 1
GAMG:  Solving for p_rgh, Initial residual = 3.21821e-05, Final residual = 4.13523e-08, No Iterations 9
time step continuity errors : sum local = 1.57563e-12, global = -1.04663e-13, cumulative = -1.27817e-13
smoothSolver:  Solving for omega, Initial residual = 5.17878e-05, Final residual = 8.27944e-11, No Iterations 1
smoothSolver:  Solving for k, Initial residual = 0.092216, Final residual = 3.03459e-11, No Iterations 2
ExecutionTime = 126.42 s  ClockTime = 127 s

forces forces write:
    sum of forces:
        pressure : (-122.507 1205.73 3415.5)
        viscous  : (-0.331601 -0.000260644 -0.00959535)
        porous   : (0 0 0)
    sum of moments:
        pressure : (-906.003 -1456.1 275.294)
        viscous  : (0.00383015 -0.048374 -0.101663)
        porous   : (0 0 0)

Courant Number mean: 0.000138825 max: 0.128888
Interface Courant Number mean: 2.89958e-06 max: 0.070029
deltaT = 0.00051058
Time = 0.00247919

PIMPLE: Iteration 1
Rigid-body motion of the hull
    Centre of rotation: (2.92954 0 0.199971)
    Orientation: (1 0 -1.00722e-05 0 1 0 1.00722e-05 0 1)
    Linear velocity: (2.64698e-23 0 -0.0176386)
    Angular velocity: (0 0.00907079 0)
GAMG:  Solving for pcorr, Initial residual = 1, Final residual = 0.000873261, No Iterations 18
time step continuity errors : sum local = 7.8635e-13, global = 6.0449e-14, cumulative = -6.73682e-14
smoothSolver:  Solving for alpha.water, Initial residual = 1.16871e-06, Final residual = 2.08392e-14, No Iterations 2
Phase-1 volume fraction = 0.812244  Min(alpha.water) = -1.24291e-19  Max(alpha.water) = 1
Applying the previous iteration compression flux
MULES: Correcting alpha.water
MULES: Correcting alpha.water
MULES: Correcting alpha.water
MULES: Correcting alpha.water
Phase-1 volume fraction = 0.812244  Min(alpha.water) = -3.43219e-11  Max(alpha.water) = 1
GAMG:  Solving for p_rgh, Initial residual = 0.00270248, Final residual = 4.6967e-08, No Iterations 17
time step continuity errors : sum local = 2.22668e-12, global = 9.61416e-14, cumulative = 2.87734e-14
PIMPLE: Iteration 2
Rigid-body motion of the hull
    Centre of rotation: (2.92954 0 0.199971)
    Orientation: (1 0 -9.501e-06 0 1 0 9.501e-06 0 1)
    Linear velocity: (0 0 -0.0191295)
    Angular velocity: (0 0.00683346 0)
GAMG:  Solving for pcorr, Initial residual = 1, Final residual = 0.000854984, No Iterations 17
time step continuity errors : sum local = 4.95734e-13, global = -1.9951e-14, cumulative = 8.82235e-15
smoothSolver:  Solving for alpha.water, Initial residual = 8.02599e-07, Final residual = 8.52274e-11, No Iterations 1
Phase-1 volume fraction = 0.812244  Min(alpha.water) = -9.92866e-16  Max(alpha.water) = 1
Applying the previous iteration compression flux
MULES: Correcting alpha.water
MULES: Correcting alpha.water
MULES: Correcting alpha.water
MULES: Correcting alpha.water
Phase-1 volume fraction = 0.812244  Min(alpha.water) = -9.32574e-11  Max(alpha.water) = 1
GAMG:  Solving for p_rgh, Initial residual = 6.44708e-05, Final residual = 3.58122e-08, No Iterations 11
time step continuity errors : sum local = 2.93356e-12, global = -1.56894e-13, cumulative = -1.48071e-13
PIMPLE: Iteration 3
Rigid-body motion of the hull
    Centre of rotation: (2.92954 0 0.199971)
    Orientation: (1 0 -9.75571e-06 0 1 0 9.75571e-06 0 1)
    Linear velocity: (-2.64698e-23 0 -0.0184602)
    Angular velocity: (0 0.00783119 0)
GAMG:  Solving for pcorr, Initial residual = 1, Final residual = 0.000973369, No Iterations 16
time step continuity errors : sum local = 2.55556e-13, global = 1.10725e-14, cumulative = -1.36999e-13
smoothSolver:  Solving for alpha.water, Initial residual = 8.00852e-07, Final residual = 8.52416e-11, No Iterations 1
Phase-1 volume fraction = 0.812244  Min(alpha.water) = -9.95323e-16  Max(alpha.water) = 1
Applying the previous iteration compression flux
MULES: Correcting alpha.water
MULES: Correcting alpha.water
MULES: Correcting alpha.water
MULES: Correcting alpha.water
Phase-1 volume fraction = 0.812244  Min(alpha.water) = -3.56732e-14  Max(alpha.water) = 1
GAMG:  Solving for p_rgh, Initial residual = 4.51584e-05, Final residual = 3.81686e-08, No Iterations 10
time step continuity errors : sum local = 1.70635e-12, global = 1.08505e-13, cumulative = -2.8494e-14
smoothSolver:  Solving for omega, Initial residual = 6.20061e-05, Final residual = 1.2086e-10, No Iterations 1
smoothSolver:  Solving for k, Initial residual = 0.0867129, Final residual = 4.17671e-11, No Iterations 2
ExecutionTime = 140.14 s  ClockTime = 140 s

forces forces write:
    sum of forces:
        pressure : (-163.067 582.873 234.838)
        viscous  : (-0.332141 0.0014477 -0.0138815)
        porous   : (0 0 0)
    sum of moments:
        pressure : (-208.834 -2736.75 555.368)
        viscous  : (0.00525724 -0.0528891 -0.103902)
        porous   : (0 0 0)

Courant Number mean: 0.000166352 max: 0.15533
Interface Courant Number mean: 3.47049e-06 max: 0.0819435
deltaT = 0.000609505
Time = 0.0030887

PIMPLE: Iteration 1
Rigid-body motion of the hull
    Centre of rotation: (2.92954 0 0.199959)
    Orientation: (1 0 -1.47546e-05 0 1 0 1.47546e-05 0 1)
    Linear velocity: (0 0 -0.0224407)
    Angular velocity: (0 0.00857195 0)
GAMG:  Solving for pcorr, Initial residual = 1, Final residual = 0.000951171, No Iterations 18
time step continuity errors : sum local = 5.81774e-13, global = 4.374e-14, cumulative = 1.5246e-14
smoothSolver:  Solving for alpha.water, Initial residual = 1.39513e-06, Final residual = 3.55611e-14, No Iterations 2
Phase-1 volume fraction = 0.812243  Min(alpha.water) = -1.23414e-19  Max(alpha.water) = 1
Applying the previous iteration compression flux
MULES: Correcting alpha.water
MULES: Correcting alpha.water
MULES: Correcting alpha.water
MULES: Correcting alpha.water
Phase-1 volume fraction = 0.812243  Min(alpha.water) = -9.86881e-10  Max(alpha.water) = 1
GAMG:  Solving for p_rgh, Initial residual = 0.0025734, Final residual = 4.07863e-08, No Iterations 15
time step continuity errors : sum local = 3.37244e-12, global = -1.29564e-13, cumulative = -1.14318e-13
PIMPLE: Iteration 2
Rigid-body motion of the hull
    Centre of rotation: (2.92954 0 0.199959)
    Orientation: (1 0 -1.50171e-05 0 1 0 1.50171e-05 0 1)
    Linear velocity: (0 0 -0.0218554)
    Angular velocity: (0 0.00943319 0)
GAMG:  Solving for pcorr, Initial residual = 1, Final residual = 0.00095045, No Iterations 18
time step continuity errors : sum local = 2.58496e-13, global = 8.82282e-15, cumulative = -1.05495e-13
smoothSolver:  Solving for alpha.water, Initial residual = 9.57309e-07, Final residual = 2.76268e-14, No Iterations 2
Phase-1 volume fraction = 0.812243  Min(alpha.water) = -1.23421e-19  Max(alpha.water) = 1
Applying the previous iteration compression flux
MULES: Correcting alpha.water
MULES: Correcting alpha.water
MULES: Correcting alpha.water
MULES: Correcting alpha.water
Phase-1 volume fraction = 0.812243  Min(alpha.water) = -5.80083e-12  Max(alpha.water) = 1
GAMG:  Solving for p_rgh, Initial residual = 9.37825e-05, Final residual = 4.37858e-08, No Iterations 10
time step continuity errors : sum local = 2.67702e-12, global = 1.05755e-13, cumulative = 2.59346e-16
PIMPLE: Iteration 3
Rigid-body motion of the hull
    Centre of rotation: (2.92954 0 0.199959)
    Orientation: (1 0 -1.49008e-05 0 1 0 1.49008e-05 0 1)
    Linear velocity: (0 0 -0.0221053)
    Angular velocity: (0 0.00905164 0)
GAMG:  Solving for pcorr, Initial residual = 1, Final residual = 0.000945609, No Iterations 17
time step continuity errors : sum local = 1.16321e-13, global = -4.31562e-15, cumulative = -4.05627e-15
smoothSolver:  Solving for alpha.water, Initial residual = 9.54702e-07, Final residual = 2.77333e-14, No Iterations 2
Phase-1 volume fraction = 0.812243  Min(alpha.water) = -1.23421e-19  Max(alpha.water) = 1
Applying the previous iteration compression flux
MULES: Correcting alpha.water
MULES: Correcting alpha.water
MULES: Correcting alpha.water
MULES: Correcting alpha.water
Phase-1 volume fraction = 0.812243  Min(alpha.water) = -2.11578e-12  Max(alpha.water) = 1
GAMG:  Solving for p_rgh, Initial residual = 1.48201e-05, Final residual = 3.917e-08, No Iterations 7
time step continuity errors : sum local = 3.00276e-12, global = -2.27459e-13, cumulative = -2.31516e-13
smoothSolver:  Solving for omega, Initial residual = 7.39675e-05, Final residual = 1.75417e-10, No Iterations 1
smoothSolver:  Solving for k, Initial residual = 0.082087, Final residual = 5.67919e-11, No Iterations 2
ExecutionTime = 153.71 s  ClockTime = 154 s

forces forces write:
    sum of forces:
        pressure : (-132.156 888.776 1775.23)
        viscous  : (-0.332811 0.00263397 -0.0165989)
        porous   : (0 0 0)
    sum of moments:
        pressure : (-544.701 -2062.71 402.118)
        viscous  : (0.00620495 -0.0573676 -0.10605)
        porous   : (0 0 0)

Courant Number mean: 0.000198645 max: 0.183295
Interface Courant Number mean: 4.1431e-06 max: 0.0957795
deltaT = 0.000728656
Time = 0.00381736

PIMPLE: Iteration 1
Rigid-body motion of the hull
    Centre of rotation: (2.92954 0 0.199941)
    Orientation: (1 0 -2.20791e-05 0 1 0 2.20791e-05 0 1)
    Linear velocity: (1.05879e-22 0 -0.0263454)
    Angular velocity: (0 0.0106512 0)
GAMG:  Solving for pcorr, Initial residual = 1, Final residual = 0.000840114, No Iterations 18
time step continuity errors : sum local = 6.8167e-13, global = -6.41092e-14, cumulative = -2.95625e-13
smoothSolver:  Solving for alpha.water, Initial residual = 1.6682e-06, Final residual = 6.08849e-14, No Iterations 2
Phase-1 volume fraction = 0.812243  Min(alpha.water) = -1.2238e-19  Max(alpha.water) = 1
Applying the previous iteration compression flux
MULES: Correcting alpha.water
MULES: Correcting alpha.water
MULES: Correcting alpha.water
MULES: Correcting alpha.water
Phase-1 volume fraction = 0.812243  Min(alpha.water) = -2.54205e-09  Max(alpha.water) = 1
GAMG:  Solving for p_rgh, Initial residual = 0.00371642, Final residual = 4.54099e-08, No Iterations 15
time step continuity errors : sum local = 4.35357e-12, global = -1.69752e-13, cumulative = -4.65377e-13
PIMPLE: Iteration 2
Rigid-body motion of the hull
    Centre of rotation: (2.92954 0 0.199942)
    Orientation: (1 0 -2.24744e-05 0 1 0 2.24744e-05 0 1)
    Linear velocity: (-1.05879e-22 0 -0.0256049)
    Angular velocity: (0 0.0117363 0)
GAMG:  Solving for pcorr, Initial residual = 1, Final residual = 0.000855016, No Iterations 18
time step continuity errors : sum local = 3.48865e-13, global = 1.71341e-14, cumulative = -4.48243e-13
smoothSolver:  Solving for alpha.water, Initial residual = 1.14316e-06, Final residual = 4.72098e-14, No Iterations 2
Phase-1 volume fraction = 0.812243  Min(alpha.water) = -7.16419e-17  Max(alpha.water) = 1
Applying the previous iteration compression flux
MULES: Correcting alpha.water
MULES: Correcting alpha.water
MULES: Correcting alpha.water
MULES: Correcting alpha.water
Phase-1 volume fraction = 0.812243  Min(alpha.water) = -1.02354e-10  Max(alpha.water) = 1
GAMG:  Solving for p_rgh, Initial residual = 8.64913e-05, Final residual = 3.98651e-08, No Iterations 10
time step continuity errors : sum local = 3.77665e-12, global = 1.94832e-13, cumulative = -2.53411e-13
PIMPLE: Iteration 3
Rigid-body motion of the hull
    Centre of rotation: (2.92954 0 0.199941)
    Orientation: (1 0 -2.22998e-05 0 1 0 2.22998e-05 0 1)
    Linear velocity: (0 0 -0.0259186)
    Angular velocity: (0 0.011257 0)
GAMG:  Solving for pcorr, Initial residual = 1, Final residual = 0.0008518, No Iterations 17
time step continuity errors : sum local = 1.56123e-13, global = -7.47533e-15, cumulative = -2.60887e-13
smoothSolver:  Solving for alpha.water, Initial residual = 1.13992e-06, Final residual = 4.73981e-14, No Iterations 2
Phase-1 volume fraction = 0.812243  Min(alpha.water) = -7.0409e-17  Max(alpha.water) = 1
Applying the previous iteration compression flux
MULES: Correcting alpha.water
MULES: Correcting alpha.water
MULES: Correcting alpha.water
MULES: Correcting alpha.water
Phase-1 volume fraction = 0.812243  Min(alpha.water) = -4.70514e-11  Max(alpha.water) = 1
GAMG:  Solving for p_rgh, Initial residual = 1.72063e-05, Final residual = 4.38203e-08, No Iterations 7
time step continuity errors : sum local = 4.38301e-12, global = -3.82997e-13, cumulative = -6.43884e-13
smoothSolver:  Solving for omega, Initial residual = 8.8344e-05, Final residual = 2.56691e-10, No Iterations 1
smoothSolver:  Solving for k, Initial residual = 0.0784297, Final residual = 7.83972e-11, No Iterations 2
ExecutionTime = 167.35 s  ClockTime = 168 s

forces forces write:
    sum of forces:
        pressure : (-116.931 1011.49 2404.2)
        viscous  : (-0.333643 0.00362257 -0.0189223)
        porous   : (0 0 0)
    sum of moments:
        pressure : (-681.579 -1769.51 334.003)
        viscous  : (0.0070199 -0.062248 -0.108396)
        porous   : (0 0 0)

Courant Number mean: 0.000237565 max: 0.210537
Interface Courant Number mean: 4.95054e-06 max: 0.11228
deltaT = 0.000874388
Time = 0.00469174

PIMPLE: Iteration 1
Rigid-body motion of the hull
    Centre of rotation: (2.92954 0 0.199917)
    Orientation: (1 0 -3.38376e-05 0 1 0 3.38376e-05 0 1)
    Linear velocity: (0 0 -0.0296374)
    Angular velocity: (0 0.0151336 0)
GAMG:  Solving for pcorr, Initial residual = 1, Final residual = 0.0009657, No Iterations 18
time step continuity errors : sum local = 1.97386e-12, global = 1.95984e-13, cumulative = -4.479e-13
smoothSolver:  Solving for alpha.water, Initial residual = 2.00285e-06, Final residual = 1.0551e-13, No Iterations 2
Phase-1 volume fraction = 0.812243  Min(alpha.water) = -1.2116e-19  Max(alpha.water) = 1
Applying the previous iteration compression flux
MULES: Correcting alpha.water
MULES: Correcting alpha.water
MULES: Correcting alpha.water
MULES: Correcting alpha.water
Phase-1 volume fraction = 0.812243  Min(alpha.water) = -1.64702e-11  Max(alpha.water) = 1
GAMG:  Solving for p_rgh, Initial residual = 0.00489899, Final residual = 4.30626e-08, No Iterations 16
time step continuity errors : sum local = 5.30522e-12, global = 1.93226e-13, cumulative = -2.54673e-13
PIMPLE: Iteration 2
Rigid-body motion of the hull
    Centre of rotation: (2.92954 0 0.199917)
    Orientation: (1 0 -3.29814e-05 0 1 0 3.29814e-05 0 1)
    Linear velocity: (0 0 -0.0309264)
    Angular velocity: (0 0.0131753 0)
GAMG:  Solving for pcorr, Initial residual = 1, Final residual = 0.000910215, No Iterations 17
time step continuity errors : sum local = 7.91821e-13, global = -3.49783e-14, cumulative = -2.89652e-13
smoothSolver:  Solving for alpha.water, Initial residual = 1.37078e-06, Final residual = 8.19037e-14, No Iterations 2
Phase-1 volume fraction = 0.812243  Min(alpha.water) = -1.52394e-19  Max(alpha.water) = 1
Applying the previous iteration compression flux
MULES: Correcting alpha.water
MULES: Correcting alpha.water
MULES: Correcting alpha.water
MULES: Correcting alpha.water
Phase-1 volume fraction = 0.812243  Min(alpha.water) = -2.28464e-10  Max(alpha.water) = 1
GAMG:  Solving for p_rgh, Initial residual = 7.50267e-05, Final residual = 3.75335e-08, No Iterations 10
time step continuity errors : sum local = 7.03497e-12, global = -4.47275e-13, cumulative = -7.36926e-13
PIMPLE: Iteration 3
Rigid-body motion of the hull
    Centre of rotation: (2.92954 0 0.199917)
    Orientation: (1 0 -3.33704e-05 0 1 0 3.33704e-05 0 1)
    Linear velocity: (0 0 -0.0303192)
    Angular velocity: (0 0.014065 0)
GAMG:  Solving for pcorr, Initial residual = 1, Final residual = 0.000796117, No Iterations 17
time step continuity errors : sum local = 3.22567e-13, global = 1.48795e-14, cumulative = -7.22047e-13
smoothSolver:  Solving for alpha.water, Initial residual = 1.36617e-06, Final residual = 8.19722e-14, No Iterations 2
Phase-1 volume fraction = 0.812243  Min(alpha.water) = -1.52428e-19  Max(alpha.water) = 1
Applying the previous iteration compression flux
MULES: Correcting alpha.water
MULES: Correcting alpha.water
MULES: Correcting alpha.water
MULES: Correcting alpha.water
Phase-1 volume fraction = 0.812243  Min(alpha.water) = -9.28527e-13  Max(alpha.water) = 1
GAMG:  Solving for p_rgh, Initial residual = 2.92898e-05, Final residual = 3.35294e-08, No Iterations 9
time step continuity errors : sum local = 4.17865e-12, global = 3.13747e-13, cumulative = -4.08299e-13
smoothSolver:  Solving for omega, Initial residual = 0.000105879, Final residual = 3.80198e-10, No Iterations 1
smoothSolver:  Solving for k, Initial residual = 0.0756274, Final residual = 1.09594e-10, No Iterations 2
ExecutionTime = 181 s  ClockTime = 181 s

forces forces write:
    sum of forces:
        pressure : (-138.034 705.306 840.664)
        viscous  : (-0.334714 0.00608666 -0.0251344)
        porous   : (0 0 0)
    sum of moments:
        pressure : (-339.274 -2387.85 470.612)
        viscous  : (0.00910937 -0.0695343 -0.111768)
        porous   : (0 0 0)

Courant Number mean: 0.000285201 max: 0.229863
Interface Courant Number mean: 5.93406e-06 max: 0.131976
deltaT = 0.00104734
Time = 0.00573909

PIMPLE: Iteration 1
Rigid-body motion of the hull
    Centre of rotation: (2.92954 0 0.199882)
    Orientation: (1 0 -4.90959e-05 0 1 0 4.90959e-05 0 1)
    Linear velocity: (-2.11758e-22 0 -0.0365162)
    Angular velocity: (0 0.0159644 0)
GAMG:  Solving for pcorr, Initial residual = 1, Final residual = 0.000985403, No Iterations 18
time step continuity errors : sum local = 1.83045e-12, global = 2.05277e-13, cumulative = -2.03023e-13
smoothSolver:  Solving for alpha.water, Initial residual = 2.40034e-06, Final residual = 1.82718e-13, No Iterations 2
Phase-1 volume fraction = 0.812243  Min(alpha.water) = -1.5055e-19  Max(alpha.water) = 1
Applying the previous iteration compression flux
MULES: Correcting alpha.water
MULES: Correcting alpha.water
MULES: Correcting alpha.water
MULES: Correcting alpha.water
Phase-1 volume fraction = 0.812243  Min(alpha.water) = -4.991e-09  Max(alpha.water) = 1
GAMG:  Solving for p_rgh, Initial residual = 0.00471604, Final residual = 4.3287e-08, No Iterations 14
time step continuity errors : sum local = 9.33894e-12, global = -4.20313e-13, cumulative = -6.23336e-13
PIMPLE: Iteration 2
Rigid-body motion of the hull
    Centre of rotation: (2.92954 0 0.199882)
    Orientation: (1 0 -4.96323e-05 0 1 0 4.96323e-05 0 1)
    Linear velocity: (2.11758e-22 0 -0.0357984)
    Angular velocity: (0 0.0169886 0)
GAMG:  Solving for pcorr, Initial residual = 1, Final residual = 0.000934697, No Iterations 18
time step continuity errors : sum local = 5.23847e-13, global = 3.30576e-14, cumulative = -5.90278e-13
smoothSolver:  Solving for alpha.water, Initial residual = 1.63983e-06, Final residual = 1.41895e-13, No Iterations 2
Phase-1 volume fraction = 0.812243  Min(alpha.water) = -1.50603e-19  Max(alpha.water) = 1
Applying the previous iteration compression flux
MULES: Correcting alpha.water
MULES: Correcting alpha.water
MULES: Correcting alpha.water
MULES: Correcting alpha.water
Phase-1 volume fraction = 0.812243  Min(alpha.water) = -1.82474e-10  Max(alpha.water) = 1
GAMG:  Solving for p_rgh, Initial residual = 0.000113135, Final residual = 4.82843e-08, No Iterations 9
time step continuity errors : sum local = 8.07488e-12, global = 4.73296e-13, cumulative = -1.16982e-13
PIMPLE: Iteration 3
Rigid-body motion of the hull
    Centre of rotation: (2.92954 0 0.199882)
    Orientation: (1 0 -4.93932e-05 0 1 0 4.93932e-05 0 1)
    Linear velocity: (0 0 -0.0360868)
    Angular velocity: (0 0.016532 0)
GAMG:  Solving for pcorr, Initial residual = 1, Final residual = 0.000899002, No Iterations 17
time step continuity errors : sum local = 2.27381e-13, global = -1.25626e-14, cumulative = -1.29545e-13
smoothSolver:  Solving for alpha.water, Initial residual = 1.6345e-06, Final residual = 1.41981e-13, No Iterations 2
Phase-1 volume fraction = 0.812243  Min(alpha.water) = -1.50628e-19  Max(alpha.water) = 1
Applying the previous iteration compression flux
MULES: Correcting alpha.water
MULES: Correcting alpha.water
MULES: Correcting alpha.water
MULES: Correcting alpha.water
Phase-1 volume fraction = 0.812243  Min(alpha.water) = -2.19252e-11  Max(alpha.water) = 1
GAMG:  Solving for p_rgh, Initial residual = 1.41819e-05, Final residual = 3.09627e-08, No Iterations 7
time step continuity errors : sum local = 6.38805e-12, global = -6.07642e-13, cumulative = -7.37187e-13
smoothSolver:  Solving for omega, Initial residual = 0.000126597, Final residual = 5.65507e-10, No Iterations 1
smoothSolver:  Solving for k, Initial residual = 0.0730615, Final residual = 1.53253e-10, No Iterations 2
ExecutionTime = 194.46 s  ClockTime = 195 s

forces forces write:
    sum of forces:
        pressure : (-120.273 895.676 1802.8)
        viscous  : (-0.336027 0.00810157 -0.0300889)
        porous   : (0 0 0)
    sum of moments:
        pressure : (-549.15 -1962.22 374.934)
        viscous  : (0.0108246 -0.077117 -0.115267)
        porous   : (0 0 0)

Courant Number mean: 0.000341794 max: 0.280208
Interface Courant Number mean: 7.11184e-06 max: 0.271713
deltaT = 0.00125681
Time = 0.0069959

PIMPLE: Iteration 1
Rigid-body motion of the hull
    Centre of rotation: (2.92954 0 0.199833)
    Orientation: (1 0 -7.22451e-05 0 1 0 7.22451e-05 0 1)
    Linear velocity: (4.23516e-22 0 -0.0426983)
    Angular velocity: (0 0.019833 0)
GAMG:  Solving for pcorr, Initial residual = 1, Final residual = 0.000956154, No Iterations 18
time step continuity errors : sum local = 2.61603e-12, global = 2.5905e-13, cumulative = -4.78136e-13
smoothSolver:  Solving for alpha.water, Initial residual = 2.883e-06, Final residual = 3.19406e-13, No Iterations 2
Phase-1 volume fraction = 0.812243  Min(alpha.water) = -1.48847e-19  Max(alpha.water) = 1
Applying the previous iteration compression flux
MULES: Correcting alpha.water
MULES: Correcting alpha.water
MULES: Correcting alpha.water
MULES: Correcting alpha.water
Phase-1 volume fraction = 0.812243  Min(alpha.water) = -2.21778e-09  Max(alpha.water) = 1
GAMG:  Solving for p_rgh, Initial residual = 0.00645684, Final residual = 4.34634e-08, No Iterations 14
time step continuity errors : sum local = 1.15623e-11, global = -2.73548e-13, cumulative = -7.51684e-13
PIMPLE: Iteration 2
Rigid-body motion of the hull
    Centre of rotation: (2.92954 0 0.199833)
    Orientation: (1 0 -7.266e-05 0 1 0 7.266e-05 0 1)
    Linear velocity: (0 0 -0.0422097)
    Angular velocity: (0 0.0204932 0)
GAMG:  Solving for pcorr, Initial residual = 1, Final residual = 0.000994757, No Iterations 19
time step continuity errors : sum local = 4.43071e-13, global = 2.07857e-14, cumulative = -7.30899e-13
smoothSolver:  Solving for alpha.water, Initial residual = 1.96692e-06, Final residual = 2.49379e-13, No Iterations 2
Phase-1 volume fraction = 0.812243  Min(alpha.water) = -7.11607e-21  Max(alpha.water) = 1
Applying the previous iteration compression flux
MULES: Correcting alpha.water
MULES: Correcting alpha.water
MULES: Correcting alpha.water
MULES: Correcting alpha.water
Phase-1 volume fraction = 0.812243  Min(alpha.water) = -6.67462e-10  Max(alpha.water) = 1
GAMG:  Solving for p_rgh, Initial residual = 0.000121368, Final residual = 3.55532e-08, No Iterations 9
time step continuity errors : sum local = 8.61782e-12, global = 3.38154e-13, cumulative = -3.92745e-13
PIMPLE: Iteration 3
Rigid-body motion of the hull
    Centre of rotation: (2.92954 0 0.199833)
    Orientation: (1 0 -7.2479e-05 0 1 0 7.2479e-05 0 1)
    Linear velocity: (-4.23516e-22 0 -0.0423786)
    Angular velocity: (0 0.0202051 0)
GAMG:  Solving for pcorr, Initial residual = 1, Final residual = 0.000878493, No Iterations 18
time step continuity errors : sum local = 1.71163e-13, global = -7.38823e-15, cumulative = -4.00133e-13
smoothSolver:  Solving for alpha.water, Initial residual = 1.95908e-06, Final residual = 2.49753e-13, No Iterations 2
Phase-1 volume fraction = 0.812243  Min(alpha.water) = -7.1161e-21  Max(alpha.water) = 1
Applying the previous iteration compression flux
MULES: Correcting alpha.water
MULES: Correcting alpha.water
MULES: Correcting alpha.water
MULES: Correcting alpha.water
Phase-1 volume fraction = 0.812243  Min(alpha.water) = -8.06017e-11  Max(alpha.water) = 1
GAMG:  Solving for p_rgh, Initial residual = 1.36656e-05, Final residual = 3.22344e-08, No Iterations 6
time step continuity errors : sum local = 8.79232e-12, global = -6.99849e-13, cumulative = -1.09998e-12
smoothSolver:  Solving for omega, Initial residual = 0.000151596, Final residual = 8.538e-10, No Iterations 1
smoothSolver:  Solving for k, Initial residual = 0.070882, Final residual = 2.18208e-10, No Iterations 2
ExecutionTime = 207.94 s  ClockTime = 208 s

forces forces write:
    sum of forces:
        pressure : (-115.89 922.755 1945.64)
        viscous  : (-0.337633 0.0103722 -0.0356962)
        porous   : (0 0 0)
    sum of moments:
        pressure : (-580.068 -1872.86 354.66)
        viscous  : (0.0127801 -0.085839 -0.119384)
        porous   : (0 0 0)

Courant Number mean: 0.000410395 max: 0.334328
Interface Courant Number mean: 8.57376e-06 max: 0.316831
deltaT = 0.00150007
Time = 0.00849596

PIMPLE: Iteration 1
Rigid-body motion of the hull
    Centre of rotation: (2.92954 0 0.199764)
    Orientation: (1 0 -0.000106747 0 1 0 0.000106747 0 1)
    Linear velocity: (0 0 -0.0491741)
    Angular velocity: (0 0.0254842 0)
GAMG:  Solving for pcorr, Initial residual = 1, Final residual = 0.000976525, No Iterations 18
time step continuity errors : sum local = 5.00883e-12, global = 5.7144e-13, cumulative = -5.28542e-13
smoothSolver:  Solving for alpha.water, Initial residual = 3.44658e-06, Final residual = 5.52467e-13, No Iterations 2
Phase-1 volume fraction = 0.812243  Min(alpha.water) = -3.22561e-16  Max(alpha.water) = 1
Applying the previous iteration compression flux
MULES: Correcting alpha.water
MULES: Correcting alpha.water
MULES: Correcting alpha.water
MULES: Correcting alpha.water
Phase-1 volume fraction = 0.812243  Min(alpha.water) = -1.27419e-10  Max(alpha.water) = 1
GAMG:  Solving for p_rgh, Initial residual = 0.00790213, Final residual = 4.76883e-08, No Iterations 14
time step continuity errors : sum local = 1.72563e-11, global = 6.93738e-13, cumulative = 1.65196e-13
PIMPLE: Iteration 2
Rigid-body motion of the hull
    Centre of rotation: (2.92954 0 0.199763)
    Orientation: (1 0 -0.000105445 0 1 0 0.000105445 0 1)
    Linear velocity: (-8.47033e-22 0 -0.0502707)
    Angular velocity: (0 0.0237476 0)
GAMG:  Solving for pcorr, Initial residual = 1, Final residual = 0.000981651, No Iterations 17
time step continuity errors : sum local = 1.30148e-12, global = -7.69013e-14, cumulative = 8.82946e-14
smoothSolver:  Solving for alpha.water, Initial residual = 2.34664e-06, Final residual = 4.32564e-13, No Iterations 2
Phase-1 volume fraction = 0.812243  Min(alpha.water) = -1.10448e-17  Max(alpha.water) = 1
Applying the previous iteration compression flux
MULES: Correcting alpha.water
MULES: Correcting alpha.water
MULES: Correcting alpha.water
MULES: Correcting alpha.water
Phase-1 volume fraction = 0.812243  Min(alpha.water) = -1.62292e-09  Max(alpha.water) = 1
GAMG:  Solving for p_rgh, Initial residual = 0.000109699, Final residual = 4.00405e-08, No Iterations 9
time step continuity errors : sum local = 1.82436e-11, global = -1.19604e-12, cumulative = -1.10775e-12
PIMPLE: Iteration 3
Rigid-body motion of the hull
    Centre of rotation: (2.92954 0 0.199764)
    Orientation: (1 0 -0.000106062 0 1 0 0.000106062 0 1)
    Linear velocity: (0 0 -0.0496827)
    Angular velocity: (0 0.0245699 0)
GAMG:  Solving for pcorr, Initial residual = 1, Final residual = 0.000978178, No Iterations 16
time step continuity errors : sum local = 6.42704e-13, global = 3.71015e-14, cumulative = -1.07064e-12
smoothSolver:  Solving for alpha.water, Initial residual = 2.33732e-06, Final residual = 4.32509e-13, No Iterations 2
Phase-1 volume fraction = 0.812243  Min(alpha.water) = -1.10476e-17  Max(alpha.water) = 1
Applying the previous iteration compression flux
MULES: Correcting alpha.water
MULES: Correcting alpha.water
MULES: Correcting alpha.water
MULES: Correcting alpha.water
Phase-1 volume fraction = 0.812243  Min(alpha.water) = -2.40985e-09  Max(alpha.water) = 1
GAMG:  Solving for p_rgh, Initial residual = 2.56986e-05, Final residual = 4.7677e-08, No Iterations 7
time step continuity errors : sum local = 1.70974e-11, global = 1.48981e-12, cumulative = 4.19163e-13
smoothSolver:  Solving for omega, Initial residual = 0.000180398, Final residual = 1.29003e-09, No Iterations 1
smoothSolver:  Solving for k, Initial residual = 0.068501, Final residual = 3.07526e-10, No Iterations 2
ExecutionTime = 221.33 s  ClockTime = 222 s

forces forces write:
    sum of forces:
        pressure : (-126.82 769.468 1164.53)
        viscous  : (-0.339618 0.0142087 -0.0452843)
        porous   : (0 0 0)
    sum of moments:
        pressure : (-409.017 -2169.89 421.034)
        viscous  : (0.0160824 -0.0972958 -0.124779)
        porous   : (0 0 0)

Courant Number mean: 0.000490209 max: 0.389138
Interface Courant Number mean: 1.01611e-05 max: 0.359325
deltaT = 0.0017942
Time = 0.0102902

PIMPLE: Iteration 1
Rigid-body motion of the hull
    Centre of rotation: (2.92954 0 0.199666)
    Orientation: (1 0 -0.000153581 0 1 0 0.000153581 0 1)
    Linear velocity: (1.69407e-21 0 -0.0591811)
    Angular velocity: (0 0.0284003 0)
GAMG:  Solving for pcorr, Initial residual = 1, Final residual = 0.000974451, No Iterations 18
time step continuity errors : sum local = 5.49192e-12, global = 5.66059e-13, cumulative = 9.85222e-13
smoothSolver:  Solving for alpha.water, Initial residual = 4.12988e-06, Final residual = 9.71965e-13, No Iterations 2
Phase-1 volume fraction = 0.812243  Min(alpha.water) = -1.16389e-17  Max(alpha.water) = 1
Applying the previous iteration compression flux
MULES: Correcting alpha.water
MULES: Correcting alpha.water
MULES: Correcting alpha.water
MULES: Correcting alpha.water
Phase-1 volume fraction = 0.812243  Min(alpha.water) = -5.80809e-10  Max(alpha.water) = 1
GAMG:  Solving for p_rgh, Initial residual = 0.00839159, Final residual = 4.0166e-08, No Iterations 13
time step continuity errors : sum local = 2.27708e-11, global = -6.01878e-13, cumulative = 3.83343e-13
PIMPLE: Iteration 2
Rigid-body motion of the hull
    Centre of rotation: (2.92954 0 0.199667)
    Orientation: (1 0 -0.000154511 0 1 0 0.000154511 0 1)
    Linear velocity: (0 0 -0.0583933)
    Angular velocity: (0 0.0294372 0)
GAMG:  Solving for pcorr, Initial residual = 1, Final residual = 0.00097389, No Iterations 18
time step continuity errors : sum local = 9.6963e-13, global = 4.13718e-14, cumulative = 4.24715e-13
smoothSolver:  Solving for alpha.water, Initial residual = 2.80799e-06, Final residual = 7.48686e-13, No Iterations 2
Phase-1 volume fraction = 0.812243  Min(alpha.water) = -7.3919e-20  Max(alpha.water) = 1
Applying the previous iteration compression flux
MULES: Correcting alpha.water
MULES: Correcting alpha.water
MULES: Correcting alpha.water
MULES: Correcting alpha.water
Phase-1 volume fraction = 0.812243  Min(alpha.water) = -4.53955e-09  Max(alpha.water) = 1
GAMG:  Solving for p_rgh, Initial residual = 0.000162809, Final residual = 3.48109e-08, No Iterations 9
time step continuity errors : sum local = 1.67648e-11, global = 6.76027e-13, cumulative = 1.10074e-12
PIMPLE: Iteration 3
Rigid-body motion of the hull
    Centre of rotation: (2.92954 0 0.199666)
    Orientation: (1 0 -0.000154102 0 1 0 0.000154102 0 1)
    Linear velocity: (1.69407e-21 0 -0.058651)
    Angular velocity: (0 0.0289802 0)
GAMG:  Solving for pcorr, Initial residual = 1, Final residual = 0.000824382, No Iterations 18
time step continuity errors : sum local = 3.55049e-13, global = -1.227e-14, cumulative = 1.08847e-12
smoothSolver:  Solving for alpha.water, Initial residual = 2.79553e-06, Final residual = 7.47062e-13, No Iterations 2
Phase-1 volume fraction = 0.812243  Min(alpha.water) = -3.84682e-20  Max(alpha.water) = 1
Applying the previous iteration compression flux
MULES: Correcting alpha.water
MULES: Correcting alpha.water
MULES: Correcting alpha.water
MULES: Correcting alpha.water
Phase-1 volume fraction = 0.812243  Min(alpha.water) = -3.91914e-09  Max(alpha.water) = 1
GAMG:  Solving for p_rgh, Initial residual = 1.90462e-05, Final residual = 3.81011e-08, No Iterations 6
time step continuity errors : sum local = 2.09439e-11, global = -1.7094e-12, cumulative = -6.20923e-13
smoothSolver:  Solving for omega, Initial residual = 0.000215001, Final residual = 1.95321e-09, No Iterations 1
smoothSolver:  Solving for k, Initial residual = 0.0664035, Final residual = 4.27254e-10, No Iterations 2
ExecutionTime = 234.67 s  ClockTime = 235 s

forces forces write:
    sum of forces:
        pressure : (-116.313 880.826 1731.06)
        viscous  : (-0.342013 0.0178845 -0.0542474)
        porous   : (0 0 0)
    sum of moments:
        pressure : (-532.533 -1900.3 361.637)
        viscous  : (0.0192669 -0.109612 -0.130715)
        porous   : (0 0 0)

Courant Number mean: 0.000586838 max: 0.497883
Interface Courant Number mean: 1.21595e-05 max: 0.402715
deltaT = 0.00213595
Time = 0.0124261

PIMPLE: Iteration 1
Rigid-body motion of the hull
    Centre of rotation: (2.92954 0 0.19953)
    Orientation: (1 0 -0.000222006 0 1 0 0.000222006 0 1)
    Linear velocity: (0 0 -0.0688464)
    Angular velocity: (0 0.0346021 0)
GAMG:  Solving for pcorr, Initial residual = 1, Final residual = 0.000965768, No Iterations 18
time step continuity errors : sum local = 7.98916e-12, global = 9.38748e-13, cumulative = 3.17825e-13
smoothSolver:  Solving for alpha.water, Initial residual = 4.92867e-06, Final residual = 1.67399e-12, No Iterations 2
Phase-1 volume fraction = 0.812243  Min(alpha.water) = -8.01818e-19  Max(alpha.water) = 1
Applying the previous iteration compression flux
MULES: Correcting alpha.water
MULES: Correcting alpha.water
MULES: Correcting alpha.water
MULES: Correcting alpha.water
Phase-1 volume fraction = 0.812243  Min(alpha.water) = -4.78664e-10  Max(alpha.water) = 1
GAMG:  Solving for p_rgh, Initial residual = 0.0108103, Final residual = 4.70223e-08, No Iterations 13
time step continuity errors : sum local = 3.38394e-11, global = 3.25976e-13, cumulative = 6.43801e-13
PIMPLE: Iteration 2
Rigid-body motion of the hull
    Centre of rotation: (2.92954 0 0.199531)
    Orientation: (1 0 -0.000222383 0 1 0 0.000222383 0 1)
    Linear velocity: (-1.69407e-21 0 -0.0684792)
    Angular velocity: (0 0.0349555 0)
GAMG:  Solving for pcorr, Initial residual = 1, Final residual = 0.000962291, No Iterations 23
time step continuity errors : sum local = 4.51395e-13, global = 2.40978e-14, cumulative = 6.67899e-13
smoothSolver:  Solving for alpha.water, Initial residual = 3.34157e-06, Final residual = 1.26143e-12, No Iterations 2
Phase-1 volume fraction = 0.812243  Min(alpha.water) = -2.35914e-20  Max(alpha.water) = 1
Applying the previous iteration compression flux
MULES: Correcting alpha.water
MULES: Correcting alpha.water
MULES: Correcting alpha.water
MULES: Correcting alpha.water
Phase-1 volume fraction = 0.812243  Min(alpha.water) = -1.23415e-08  Max(alpha.water) = 1
GAMG:  Solving for p_rgh, Initial residual = 0.000178795, Final residual = 4.54921e-08, No Iterations 7
time step continuity errors : sum local = 3.17795e-11, global = 1.02564e-12, cumulative = 1.69354e-12
PIMPLE: Iteration 3
Rigid-body motion of the hull
    Centre of rotation: (2.92954 0 0.199531)
    Orientation: (1 0 -0.00022225 0 1 0 0.00022225 0 1)
    Linear velocity: (0 0 -0.0684954)
    Angular velocity: (0 0.0348303 0)
GAMG:  Solving for pcorr, Initial residual = 1, Final residual = 0.00089542, No Iterations 27
time step continuity errors : sum local = 1.46101e-13, global = -3.74288e-15, cumulative = 1.68979e-12
smoothSolver:  Solving for alpha.water, Initial residual = 3.32766e-06, Final residual = 1.25716e-12, No Iterations 2
Phase-1 volume fraction = 0.812243  Min(alpha.water) = -2.35878e-20  Max(alpha.water) = 1
Applying the previous iteration compression flux
MULES: Correcting alpha.water
MULES: Correcting alpha.water
MULES: Correcting alpha.water
MULES: Correcting alpha.water
Phase-1 volume fraction = 0.812243  Min(alpha.water) = -2.40912e-10  Max(alpha.water) = 1
GAMG:  Solving for p_rgh, Initial residual = 1.54421e-05, Final residual = 3.41548e-08, No Iterations 5
time step continuity errors : sum local = 2.47765e-11, global = -1.24897e-12, cumulative = 4.40819e-13
smoothSolver:  Solving for omega, Initial residual = 0.000254902, Final residual = 2.95918e-09, No Iterations 1
smoothSolver:  Solving for k, Initial residual = 0.0640912, Final residual = 5.95864e-10, No Iterations 2
ExecutionTime = 248.57 s  ClockTime = 249 s

forces forces write:
    sum of forces:
        pressure : (-115.057 879.4 1731.79)
        viscous  : (-0.344931 0.0223027 -0.0648929)
        porous   : (0 0 0)
    sum of moments:
        pressure : (-532.362 -1866.13 355.543)
        viscous  : (0.0231293 -0.12358 -0.137747)
        porous   : (0 0 0)

Courant Number mean: 0.000699352 max: 0.6428
Interface Courant Number mean: 1.44294e-05 max: 0.42926
deltaT = 0.00250211
Time = 0.0149282

PIMPLE: Iteration 1
Rigid-body motion of the hull
    Centre of rotation: (2.92954 0 0.199346)
    Orientation: (1 0 -0.000318741 0 1 0 0.000318741 0 1)
    Linear velocity: (0 0 -0.0792981)
    Angular velocity: (0 0.0422979 0)
GAMG:  Solving for pcorr, Initial residual = 1, Final residual = 0.000974957, No Iterations 18
time step continuity errors : sum local = 1.271e-11, global = 1.42492e-12, cumulative = 1.86574e-12
smoothSolver:  Solving for alpha.water, Initial residual = 5.79045e-06, Final residual = 2.7372e-12, No Iterations 2
Phase-1 volume fraction = 0.812243  Min(alpha.water) = -1.39403e-14  Max(alpha.water) = 1
Applying the previous iteration compression flux
MULES: Correcting alpha.water
MULES: Correcting alpha.water
MULES: Correcting alpha.water
MULES: Correcting alpha.water
Phase-1 volume fraction = 0.812243  Min(alpha.water) = -7.38246e-09  Max(alpha.water) = 1
GAMG:  Solving for p_rgh, Initial residual = 0.0125163, Final residual = 4.19654e-08, No Iterations 13
time step continuity errors : sum local = 4.05343e-11, global = 1.48706e-12, cumulative = 3.3528e-12
PIMPLE: Iteration 2
Rigid-body motion of the hull
    Centre of rotation: (2.92954 0 0.199345)
    Orientation: (1 0 -0.000316672 0 1 0 0.000316672 0 1)
    Linear velocity: (0 0 -0.0802323)
    Angular velocity: (0 0.040644 0)
GAMG:  Solving for pcorr, Initial residual = 1, Final residual = 0.000840136, No Iterations 18
time step continuity errors : sum local = 1.75417e-12, global = -1.07508e-13, cumulative = 3.24529e-12
smoothSolver:  Solving for alpha.water, Initial residual = 3.91606e-06, Final residual = 2.01481e-12, No Iterations 2
Phase-1 volume fraction = 0.812243  Min(alpha.water) = -1.27943e-15  Max(alpha.water) = 1
Applying the previous iteration compression flux
MULES: Correcting alpha.water
MULES: Correcting alpha.water
MULES: Correcting alpha.water
MULES: Correcting alpha.water
Phase-1 volume fraction = 0.812243  Min(alpha.water) = -3.78964e-07  Max(alpha.water) = 1
GAMG:  Solving for p_rgh, Initial residual = 0.000191911, Final residual = 4.38325e-08, No Iterations 8
time step continuity errors : sum local = 4.83929e-11, global = -2.89123e-12, cumulative = 3.54059e-13
PIMPLE: Iteration 3
Rigid-body motion of the hull
    Centre of rotation: (2.92954 0 0.199345)
    Orientation: (1 0 -0.000317749 0 1 0 0.000317749 0 1)
    Linear velocity: (0 0 -0.0795599)
    Angular velocity: (0 0.0415047 0)
GAMG:  Solving for pcorr, Initial residual = 1, Final residual = 0.000799177, No Iterations 17
time step continuity errors : sum local = 9.48462e-13, global = 5.35874e-14, cumulative = 4.07646e-13
smoothSolver:  Solving for alpha.water, Initial residual = 3.89959e-06, Final residual = 2.0164e-12, No Iterations 2
Phase-1 volume fraction = 0.812243  Min(alpha.water) = -1.2795e-15  Max(alpha.water) = 1
Applying the previous iteration compression flux
MULES: Correcting alpha.water
MULES: Correcting alpha.water
MULES: Correcting alpha.water
MULES: Correcting alpha.water
Phase-1 volume fraction = 0.812243  Min(alpha.water) = -5.10371e-08  Max(alpha.water) = 1
GAMG:  Solving for p_rgh, Initial residual = 2.85019e-05, Final residual = 3.22818e-08, No Iterations 7
time step continuity errors : sum local = 3.05079e-11, global = 2.65874e-12, cumulative = 3.06639e-12
smoothSolver:  Solving for omega, Initial residual = 0.00029719, Final residual = 4.3657e-09, No Iterations 1
smoothSolver:  Solving for k, Initial residual = 0.0609349, Final residual = 8.47221e-10, No Iterations 2
ExecutionTime = 261.88 s  ClockTime = 262 s

forces forces write:
    sum of forces:
        pressure : (-121.216 793.13 1300.64)
        viscous  : (-0.348464 0.0285758 -0.0800141)
        porous   : (0 0 0)
    sum of moments:
        pressure : (-437.472 -2010.86 390.178)
        viscous  : (0.0286209 -0.140321 -0.146413)
        porous   : (0 0 0)

Courant Number mean: 0.000820264 max: 0.805718
Interface Courant Number mean: 1.69276e-05 max: 0.446809
deltaT = 0.00293351
Time = 0.0178617

PIMPLE: Iteration 1
Rigid-body motion of the hull
    Centre of rotation: (2.92954 0 0.199092)
    Orientation: (1 0 -0.000448921 0 1 0 0.000448921 0 1)
    Linear velocity: (0 0 -0.0930418)
    Angular velocity: (0 0.0479254 0)
GAMG:  Solving for pcorr, Initial residual = 1, Final residual = 0.00095636, No Iterations 18
time step continuity errors : sum local = 1.45976e-11, global = 1.54036e-12, cumulative = 4.60675e-12
smoothSolver:  Solving for alpha.water, Initial residual = 6.8086e-06, Final residual = 4.57941e-12, No Iterations 2
Phase-1 volume fraction = 0.812243  Min(alpha.water) = -9.93798e-15  Max(alpha.water) = 1
Applying the previous iteration compression flux
MULES: Correcting alpha.water
MULES: Correcting alpha.water
MULES: Correcting alpha.water
MULES: Correcting alpha.water
Phase-1 volume fraction = 0.812243  Min(alpha.water) = -6.66144e-08  Max(alpha.water) = 1
GAMG:  Solving for p_rgh, Initial residual = 0.0134768, Final residual = 4.47095e-08, No Iterations 13
time step continuity errors : sum local = 6.24424e-11, global = -1.24724e-12, cumulative = 3.35951e-12
PIMPLE: Iteration 2
Rigid-body motion of the hull
    Centre of rotation: (2.92954 0 0.199094)
    Orientation: (1 0 -0.000450228 0 1 0 0.000450228 0 1)
    Linear velocity: (0 0 -0.0922146)
    Angular velocity: (0 0.048817 0)
GAMG:  Solving for pcorr, Initial residual = 1, Final residual = 0.000955082, No Iterations 19
time step continuity errors : sum local = 1.43375e-12, global = 7.43122e-14, cumulative = 3.43383e-12
smoothSolver:  Solving for alpha.water, Initial residual = 4.595e-06, Final residual = 3.01039e-12, No Iterations 2
Phase-1 volume fraction = 0.812243  Min(alpha.water) = -5.28568e-13  Max(alpha.water) = 1
Applying the previous iteration compression flux
MULES: Correcting alpha.water
MULES: Correcting alpha.water
MULES: Correcting alpha.water
MULES: Correcting alpha.water
Phase-1 volume fraction = 0.812243  Min(alpha.water) = -8.86551e-07  Max(alpha.water) = 1
GAMG:  Solving for p_rgh, Initial residual = 0.000298341, Final residual = 3.94937e-08, No Iterations 8
time step continuity errors : sum local = 4.9773e-11, global = 1.69656e-12, cumulative = 5.13038e-12
PIMPLE: Iteration 3
Rigid-body motion of the hull
    Centre of rotation: (2.92954 0 0.199093)
    Orientation: (1 0 -0.000449723 0 1 0 0.000449723 0 1)
    Linear velocity: (0 0 -0.0923289)
    Angular velocity: (0 0.0484721 0)
GAMG:  Solving for pcorr, Initial residual = 1, Final residual = 0.000982808, No Iterations 21
time step continuity errors : sum local = 5.30683e-13, global = -1.60662e-14, cumulative = 5.11432e-12
smoothSolver:  Solving for alpha.water, Initial residual = 4.5794e-06, Final residual = 3.01838e-12, No Iterations 2
Phase-1 volume fraction = 0.812243  Min(alpha.water) = -3.59105e-13  Max(alpha.water) = 1
Applying the previous iteration compression flux
MULES: Correcting alpha.water
MULES: Correcting alpha.water
MULES: Correcting alpha.water
MULES: Correcting alpha.water
Phase-1 volume fraction = 0.812243  Min(alpha.water) = -6.67655e-08  Max(alpha.water) = 1
GAMG:  Solving for p_rgh, Initial residual = 2.18856e-05, Final residual = 3.36643e-08, No Iterations 6
time step continuity errors : sum local = 4.55923e-11, global = -2.59903e-12, cumulative = 2.51528e-12
smoothSolver:  Solving for omega, Initial residual = 0.000346331, Final residual = 6.62893e-09, No Iterations 1
smoothSolver:  Solving for k, Initial residual = 0.0580424, Final residual = 1.29946e-09, No Iterations 2
ExecutionTime = 275.45 s  ClockTime = 276 s

forces forces write:
    sum of forces:
        pressure : (-114.686 857.65 1639.68)
        viscous  : (-0.352726 0.0351029 -0.0956681)
        porous   : (0 0 0)
    sum of moments:
        pressure : (-510.934 -1824.52 351.676)
        viscous  : (0.0344526 -0.158757 -0.156101)
        porous   : (0 0 0)

Courant Number mean: 0.000963056 max: 1.0316
Interface Courant Number mean: 1.98594e-05 max: 0.644898
deltaT = 0.00342243
Time = 0.0212842

PIMPLE: Iteration 1
Rigid-body motion of the hull
    Centre of rotation: (2.92954 0 0.198753)
    Orientation: (1 0 -0.000629862 0 1 0 0.000629862 0 1)
    Linear velocity: (1.35525e-20 0 -0.106539)
[...]
Phase-1 volume fraction = 0.812205  Min(alpha.water) = -4.06472e-06  Max(alpha.water) = 1
Applying the previous iteration compression flux
MULES: Correcting alpha.water
MULES: Correcting alpha.water
MULES: Correcting alpha.water
MULES: Correcting alpha.water
Phase-1 volume fraction = 0.812205  Min(alpha.water) = -4.06472e-06  Max(alpha.water) = 1
GAMG:  Solving for p_rgh, Initial residual = 0.848362, Final residual = 4.58297e-08, No Iterations 36
time step continuity errors : sum local = 3.54937e-14, global = -8.20567e-16, cumulative = -1.20154e-09
PIMPLE: Iteration 2
Rigid-body motion of the hull
    Centre of rotation: (2.92954 0 0.0665618)
    Orientation: (0.993357 0 -0.115069 0 1 0 0.115069 0 0.993357)
    Linear velocity: (0 0 -1.38447e+06)
    Angular velocity: (0 -3.49505e+06 0)
GAMG:  Solving for pcorr, Initial residual = 1, Final residual = 0.000848156, No Iterations 10
time step continuity errors : sum local = 5.54941e-15, global = -8.17058e-17, cumulative = -1.20154e-09
smoothSolver:  Solving for alpha.water, Initial residual = 3.63017e-11, Final residual = 8.7589e-17, No Iterations 1
Phase-1 volume fraction = 0.812205  Min(alpha.water) = -4.06468e-06  Max(alpha.water) = 1
Applying the previous iteration compression flux
MULES: Correcting alpha.water
MULES: Correcting alpha.water
MULES: Correcting alpha.water
MULES: Correcting alpha.water
Phase-1 volume fraction = 0.812205  Min(alpha.water) = -4.06468e-06  Max(alpha.water) = 1
GAMG:  Solving for p_rgh, Initial residual = 0.706373, Final residual = 4.78553e-08, No Iterations 49
time step continuity errors : sum local = 1.70174e-13, global = 3.19589e-15, cumulative = -1.20154e-09
PIMPLE: Iteration 3
Rigid-body motion of the hull
    Centre of rotation: (2.92954 0 0.0665618)
    Orientation: (0.993357 0 -0.115069 0 1 0 0.115069 0 0.993357)
    Linear velocity: (0 0 5.12625e+07)
    Angular velocity: (0 1.08252e+08 0)
GAMG:  Solving for pcorr, Initial residual = 1, Final residual = 0.000937002, No Iterations 26
time step continuity errors : sum local = 1.09375e-12, global = -2.9698e-14, cumulative = -1.20157e-09
smoothSolver:  Solving for alpha.water, Initial residual = 4.96734e-10, Final residual = 9.24377e-16, No Iterations 1
Phase-1 volume fraction = 0.812205  Min(alpha.water) = -4.06471e-06  Max(alpha.water) = 1
Applying the previous iteration compression flux
MULES: Correcting alpha.water
MULES: Correcting alpha.water
MULES: Correcting alpha.water
MULES: Correcting alpha.water
Phase-1 volume fraction = 0.812205  Min(alpha.water) = -4.06471e-06  Max(alpha.water) = 1
GAMG:  Solving for p_rgh, Initial residual = 0.706792, Final residual = 4.70032e-08, No Iterations 39
time step continuity errors : sum local = 5.73706e-13, global = 1.02909e-14, cumulative = -1.20156e-09
smoothSolver:  Solving for omega, Initial residual = 1.79222e-06, Final residual = 5.00272e-08, No Iterations 3
smoothSolver:  Solving for k, Initial residual = 1.29106e-07, Final residual = 2.17994e-09, No Iterations 1
ExecutionTime = 1168.16 s  ClockTime = 1170 s

forces forces write:
    sum of forces:
        pressure : (-2.1791e+24 -2.93268e+26 8.68772e+25)
        viscous  : (-8.35342e+08 2.18643e+09 1.60712e+09)
        porous   : (0 0 0)
    sum of moments:
        pressure : (1.96946e+26 2.71817e+26 2.58726e+26)
        viscous  : (-2.38413e+09 2.28027e+09 -3.02899e+09)
        porous   : (0 0 0)

Courant Number mean: 1.16062e-05 max: 329.475
Interface Courant Number mean: 2.73015e-09 max: 0.00243515
deltaT = 2.48567e-17
Time = 0.501244

PIMPLE: Iteration 1
Rigid-body motion of the hull
    Centre of rotation: (2.92954 0 0.0665618)
    Orientation: (0.993357 0 -0.115069 0 1 0 0.115069 0 0.993357)
    Linear velocity: (9.31323e-10 0 5.48881e+07)
    Angular velocity: (0 1.16542e+08 0)
GAMG:  Solving for pcorr, Initial residual = 1, Final residual = 0.000913329, No Iterations 26
time step continuity errors : sum local = 3.32916e-14, global = 1.14743e-15, cumulative = -1.20156e-09
smoothSolver:  Solving for alpha.water, Initial residual = 1.67147e-11, Final residual = 6.63578e-17, No Iterations 1
Phase-1 volume fraction = 0.812205  Min(alpha.water) = -4.0647e-06  Max(alpha.water) = 1
Applying the previous iteration compression flux
MULES: Correcting alpha.water
MULES: Correcting alpha.water
MULES: Correcting alpha.water
MULES: Correcting alpha.water
Phase-1 volume fraction = 0.812205  Min(alpha.water) = -4.0647e-06  Max(alpha.water) = 1
GAMG:  Solving for p_rgh, Initial residual = 0.709072, Final residual = 4.98642e-08, No Iterations 42
time step continuity errors : sum local = 6.1335e-14, global = -8.45305e-16, cumulative = -1.20156e-09
PIMPLE: Iteration 2
Rigid-body motion of the hull
    Centre of rotation: (2.92954 0 0.0665618)
    Orientation: (0.993357 0 -0.115069 0 1 0 0.115069 0 0.993357)
    Linear velocity: (1.86265e-09 0 -1.09294e+08)
    Angular velocity: (0 -2.21646e+08 0)
GAMG:  Solving for pcorr, Initial residual = 1, Final residual = 0.000983138, No Iterations 12
time step continuity errors : sum local = 1.63562e-14, global = -8.9721e-16, cumulative = -1.20156e-09
smoothSolver:  Solving for alpha.water, Initial residual = 7.31583e-11, Final residual = 7.02603e-17, No Iterations 1
Phase-1 volume fraction = 0.812205  Min(alpha.water) = -4.06468e-06  Max(alpha.water) = 1
Applying the previous iteration compression flux
MULES: Correcting alpha.water
MULES: Correcting alpha.water
MULES: Correcting alpha.water
MULES: Correcting alpha.water
Phase-1 volume fraction = 0.812205  Min(alpha.water) = -4.06468e-06  Max(alpha.water) = 1
GAMG:  Solving for p_rgh, Initial residual = 0.79036, Final residual = 4.48848e-08, No Iterations 49
time step continuity errors : sum local = 1.51652e-13, global = -2.99242e-15, cumulative = -1.20156e-09
PIMPLE: Iteration 3
Rigid-body motion of the hull
    Centre of rotation: (2.92954 0 0.0665618)
    Orientation: (0.993357 0 -0.115069 0 1 0 0.115069 0 0.993357)
    Linear velocity: (0 0 -1.82089e+09)
    Angular velocity: (0 -3.85216e+09 0)
GAMG:  Solving for pcorr, Initial residual = 1, Final residual = 0.000826369, No Iterations 13
time step continuity errors : sum local = 9.00362e-14, global = -6.04154e-15, cumulative = -1.20157e-09
smoothSolver:  Solving for alpha.water, Initial residual = 3.63956e-10, Final residual = 1.02911e-15, No Iterations 1
Phase-1 volume fraction = 0.812205  Min(alpha.water) = -4.06455e-06  Max(alpha.water) = 1
Applying the previous iteration compression flux
MULES: Correcting alpha.water
MULES: Correcting alpha.water
MULES: Correcting alpha.water
MULES: Correcting alpha.water
Phase-1 volume fraction = 0.812205  Min(alpha.water) = -4.06455e-06  Max(alpha.water) = 1
GAMG:  Solving for p_rgh, Initial residual = 0.529811, Final residual = 4.26466e-08, No Iterations 43
time step continuity errors : sum local = 5.04807e-13, global = -1.22434e-14, cumulative = -1.20158e-09
smoothSolver:  Solving for omega, Initial residual = 2.285e-06, Final residual = 4.50896e-08, No Iterations 3
smoothSolver:  Solving for k, Initial residual = 2.31416e-07, Final residual = 2.72893e-09, No Iterations 1
ExecutionTime = 1186.07 s  ClockTime = 1188 s

forces forces write:
    sum of forces:
        pressure : (3.4326e+28 6.63703e+29 -3.09556e+29)
        viscous  : (1.22167e+11 -1.62851e+11 -1.40951e+11)
        porous   : (0 0 0)
    sum of moments:
        pressure : (-4.59548e+29 -6.88129e+29 -7.79065e+29)
        viscous  : (1.90497e+11 -1.42789e+11 2.72663e+11)
        porous   : (0 0 0)

Courant Number mean: 1.65559e-05 max: 274.733
Interface Courant Number mean: 5.36368e-09 max: 0.00540759
deltaT = 9.04761e-19
Time = 0.501244

PIMPLE: Iteration 1
Rigid-body motion of the hull
    Centre of rotation: (2.92954 0 0.0665617)
    Orientation: (0.993357 0 -0.115069 0 1 0 0.115069 0 0.993357)
    Linear velocity: (-2.98023e-08 0 -2.06573e+09)
    Angular velocity: (0 -4.39683e+09 0)
GAMG:  Solving for pcorr, Initial residual = 1, Final residual = 0.000945735, No Iterations 12
time step continuity errors : sum local = 7.52246e-15, global = -4.86889e-16, cumulative = -1.20158e-09
smoothSolver:  Solving for alpha.water, Initial residual = 3.37228e-11, Final residual = 7.53481e-17, No Iterations 1
Phase-1 volume fraction = 0.812205  Min(alpha.water) = -4.06452e-06  Max(alpha.water) = 1
Applying the previous iteration compression flux
MULES: Correcting alpha.water
MULES: Correcting alpha.water
MULES: Correcting alpha.water
MULES: Correcting alpha.water
Phase-1 volume fraction = 0.812205  Min(alpha.water) = -4.06452e-06  Max(alpha.water) = 1
GAMG:  Solving for p_rgh, Initial residual = 0.833255, Final residual = 4.63501e-08, No Iterations 36
time step continuity errors : sum local = 3.9401e-14, global = -9.42687e-16, cumulative = -1.20158e-09
PIMPLE: Iteration 2
Rigid-body motion of the hull
    Centre of rotation: (2.92954 0 0.0665618)
    Orientation: (0.993357 0 -0.115069 0 1 0 0.115069 0 0.993357)
    Linear velocity: (0 0 -8.98041e+08)
    Angular velocity: (0 -2.50293e+09 0)
GAMG:  Solving for pcorr, Initial residual = 1, Final residual = 0.000872927, No Iterations 10
time step continuity errors : sum local = 6.81632e-15, global = 7.2747e-17, cumulative = -1.20158e-09
smoothSolver:  Solving for alpha.water, Initial residual = 4.004e-11, Final residual = 9.24408e-17, No Iterations 1
Phase-1 volume fraction = 0.812205  Min(alpha.water) = -4.06448e-06  Max(alpha.water) = 1
Applying the previous iteration compression flux
MULES: Correcting alpha.water
MULES: Correcting alpha.water
MULES: Correcting alpha.water
MULES: Correcting alpha.water
Phase-1 volume fraction = 0.812205  Min(alpha.water) = -4.06448e-06  Max(alpha.water) = 1
GAMG:  Solving for p_rgh, Initial residual = 0.673137, Final residual = 4.30979e-08, No Iterations 49
time step continuity errors : sum local = 2.04078e-13, global = 3.91823e-15, cumulative = -1.20158e-09
PIMPLE: Iteration 3
Rigid-body motion of the hull
    Centre of rotation: (2.92954 0 0.0665618)
    Orientation: (0.993357 0 -0.115069 0 1 0 0.115069 0 0.993357)
    Linear velocity: (9.53674e-07 0 5.67109e+10)
    Angular velocity: (0 1.1949e+11 0)
GAMG:  Solving for pcorr, Initial residual = 1, Final residual = 0.000901597, No Iterations 27
time step continuity errors : sum local = 9.35278e-10, global = -3.07943e-11, cumulative = -1.23237e-09
smoothSolver:  Solving for alpha.water, Initial residual = 4.03792e-08, Final residual = 8.27481e-14, No Iterations 1
Phase-1 volume fraction = 0.812205  Min(alpha.water) = -4.0645e-06  Max(alpha.water) = 1
Applying the previous iteration compression flux
MULES: Correcting alpha.water
MULES: Correcting alpha.water
MULES: Correcting alpha.water
MULES: Correcting alpha.water
Phase-1 volume fraction = 0.812205  Min(alpha.water) = -4.0645e-06  Max(alpha.water) = 1
GAMG:  Solving for p_rgh, Initial residual = 0.716458, Final residual = 4.96634e-08, No Iterations 74
time step continuity errors : sum local = 7.86441e-13, global = -2.05808e-14, cumulative = -1.23239e-09
smoothSolver:  Solving for omega, Initial residual = 3.0424e-06, Final residual = 8.9816e-08, No Iterations 2
smoothSolver:  Solving for k, Initial residual = 2.30296e-07, Final residual = 2.95374e-09, No Iterations 1
ExecutionTime = 1204.89 s  ClockTime = 1207 s

forces forces write:
    sum of forces:
        pressure : (7.14268e+30 -3.50392e+32 -2.08885e+31)
        viscous  : (-5.04218e+11 3.08205e+12 1.81363e+12)
        porous   : (0 0 0)
    sum of moments:
        pressure : (2.38133e+32 3.7435e+32 2.1042e+32)
        viscous  : (-2.9591e+12 3.38933e+12 -3.34129e+12)
        porous   : (0 0 0)

Courant Number mean: 4.82873e-05 max: 405.147
Interface Courant Number mean: 2.60637e-08 max: 0.00290643
deltaT = 2.23317e-20
Time = 0.501244

PIMPLE: Iteration 1
Rigid-body motion of the hull
    Centre of rotation: (2.92954 0 0.0665618)
    Orientation: (0.993357 0 -0.115069 0 1 0 0.115069 0 0.993357)
    Linear velocity: (0 0 5.87991e+10)
    Angular velocity: (0 1.25883e+11 0)
GAMG:  Solving for pcorr, Initial residual = 1, Final residual = 0.000911574, No Iterations 31
time step continuity errors : sum local = 0.000745597, global = 3.34649e-06, cumulative = 3.34526e-06
smoothSolver:  Solving for alpha.water, Initial residual = 0.118695, Final residual = 7.66482e-11, No Iterations 26
Phase-1 volume fraction = 0.857737  Min(alpha.water) = -1.05412e-26  Max(alpha.water) = 1.07417
Applying the previous iteration compression flux
MULES: Correcting alpha.water
MULES: Correcting alpha.water
MULES: Correcting alpha.water
MULES: Correcting alpha.water
Phase-1 volume fraction = 0.861802  Min(alpha.water) = -18.5608  Max(alpha.water) = 32.8462
GAMG:  Solving for p_rgh, Initial residual = 1, Final residual = 4.75827e-08, No Iterations 90
time step continuity errors : sum local = 1.0995e-07, global = -1.20006e-08, cumulative = 3.33326e-06
PIMPLE: Iteration 2
Rigid-body motion of the hull
    Centre of rotation: (2.92954 0 65.7043)
    Orientation: (-0.837706 0 0.546122 0 1 0 -0.546122 0 -0.837706)
    Linear velocity: (0 0 5.87844e+21)
    Angular velocity: (0 8.20078e+21 0)
[4] #0  Foam::error::printStack(Foam::Ostream&)[5] #0  Foam::error::printStack(Foam::Ostream&) at ??:?
[5] #1  Foam::sigFpe::sigHandler(int) at ??:?
[4] #1  Foam::sigFpe::sigHandler(int) at ??:?
[5] #2  ? at ??:?
[4] #2  ? in "/lib/x86_64-linux-gnu/libc.so.6"
 in "/lib/x86_64-linux-gnu/libc.so.6"
[5] #3  Foam::GAMGSolver::scale(Foam::Field<double>&, Foam::Field<double>&, Foam::lduMatrix const&, Foam::FieldField<Foam::Field, double> const&, Foam::UPtrList<Foam::lduInterfaceField const> const&, Foam::Field<double> const&, unsigned char) const[4] #3  Foam::GAMGSolver::scale(Foam::Field<double>&, Foam::Field<double>&, Foam::lduMatrix const&, Foam::FieldField<Foam::Field, double> const&, Foam::UPtrList<Foam::lduInterfaceField const> const&, Foam::Field<double> const&, unsigned char) const at ??:?
 at ??:?
[5] #4  Foam::GAMGSolver::Vcycle(Foam::PtrList<Foam::lduMatrix::smoother> const&, Foam::Field<double>&, Foam::Field<double> const&, Foam::Field<double>&, Foam::Field<double>&, Foam::Field<double>&, Foam::Field<double>&, Foam::Field<double>&, Foam::PtrList<Foam::Field<double> >&, Foam::PtrList<Foam::Field<double> >&, unsigned char) const[4] #4  Foam::GAMGSolver::Vcycle(Foam::PtrList<Foam::lduMatrix::smoother> const&, Foam::Field<double>&, Foam::Field<double> const&, Foam::Field<double>&, Foam::Field<double>&, Foam::Field<double>&, Foam::Field<double>&, Foam::Field<double>&, Foam::PtrList<Foam::Field<double> >&, Foam::PtrList<Foam::Field<double> >&, unsigned char) const at ??:?
 at ??:?
[5] #5  Foam::GAMGSolver::solve(Foam::Field<double>&, Foam::Field<double> const&, unsigned char) const[4] #5  Foam::GAMGSolver::solve(Foam::Field<double>&, Foam::Field<double> const&, unsigned char) const at ??:?
 at ??:?
[5] #6  Foam::fvMatrix<double>::solveSegregated(Foam::dictionary const&)[4] #6  Foam::fvMatrix<double>::solveSegregated(Foam::dictionary const&) at ??:?
 at ??:?
[5] #7  [4] #7  Foam::fvMatrix<double>::solve(Foam::dictionary const&)Foam::fvMatrix<double>::solve(Foam::dictionary const&) in "/opt/openfoam9/platforms/linux64GccDPInt32Opt/bin/interFoam"
[5] #8   in "/opt/openfoam9/platforms/linux64GccDPInt32Opt/bin/interFoam"
[4] #8  Foam::fvMatrix<double>::solve()Foam::fvMatrix<double>::solve() in "/opt/openfoam9/platforms/linux64GccDPInt32Opt/bin/interFoam"
[5] #9   in "/opt/openfoam9/platforms/linux64GccDPInt32Opt/bin/interFoam"
[4] #9  ?? in "/opt/openfoam9/platforms/linux64GccDPInt32Opt/bin/interFoam"
[5] #10   in "/opt/openfoam9/platforms/linux64GccDPInt32Opt/bin/interFoam"
[4] #10  ?? in "/opt/openfoam9/platforms/linux64GccDPInt32Opt/bin/interFoam"
[5] #11  __libc_start_main in "/opt/openfoam9/platforms/linux64GccDPInt32Opt/bin/interFoam"
[4] #11  __libc_start_main in "/lib/x86_64-linux-gnu/libc.so.6"
[5] #12   in "/lib/x86_64-linux-gnu/libc.so.6"
[4] #12  ?? in "/opt/openfoam9/platforms/linux64GccDPInt32Opt/bin/interFoam"
[acl:3337259] *** Process received signal ***
[acl:3337259] Signal: Floating point exception (8)
[acl:3337259] Signal code:  (-6)
[acl:3337259] Failing at address: 0x3e80032ec2b
[acl:3337259] [ 0] /lib/x86_64-linux-gnu/libc.so.6(+0x46210)[0x7fcc3452a210]
[acl:3337259] [ 1] /lib/x86_64-linux-gnu/libc.so.6(gsignal+0xcb)[0x7fcc3452a18b]
[acl:3337259] [ 2] /lib/x86_64-linux-gnu/libc.so.6(+0x46210)[0x7fcc3452a210]
[acl:3337259] [ 3]  in "/opt/openfoam9/platforms/linux64GccDPInt32Opt/bin/interFoam"
/opt/openfoam9/platforms/linux64GccDPInt32Opt/lib/libOpenFOAM.so(_ZNK4Foam10GAMGSolver5scaleERNS_5FieldIdEES3_RKNS_9lduMatrixERKNS_10FieldFieldIS1_dEERKNS_8UPtrListIKNS_17lduInterfaceFieldEEERKS2_h+0xc7)[0x7fcc34f634c7]
[acl:3337259] [ 4] [acl:3337258] *** Process received signal ***
[acl:3337258] Signal: Floating point exception (8)
[acl:3337258] Signal code:  (-6)
[acl:3337258] Failing at address: 0x3e80032ec2a
[acl:3337258] [ 0] /lib/x86_64-linux-gnu/libc.so.6(+0x46210)[0x7f436c817210]
[acl:3337258] [ 1] /lib/x86_64-linux-gnu/libc.so.6(gsignal+0xcb)[0x7f436c81718b]
[acl:3337258] [ 2] /lib/x86_64-linux-gnu/libc.so.6(+0x46210)[0x7f436c817210]
[acl:3337258] [ 3] /opt/openfoam9/platforms/linux64GccDPInt32Opt/lib/libOpenFOAM.so(_ZNK4Foam10GAMGSolver6VcycleERKNS_7PtrListINS_9lduMatrix8smootherEEERNS_5FieldIdEERKS8_S9_S9_S9_S9_S9_RNS1_IS8_EESD_h+0x1035)[0x7fcc34f67d05]
[acl:3337259] [ 5] /opt/openfoam9/platforms/linux64GccDPInt32Opt/lib/libOpenFOAM.so(_ZNK4Foam10GAMGSolver5scaleERNS_5FieldIdEES3_RKNS_9lduMatrixERKNS_10FieldFieldIS1_dEERKNS_8UPtrListIKNS_17lduInterfaceFieldEEERKS2_h+0xc7)[0x7f436d2504c7]
[acl:3337258] [ 4] /opt/openfoam9/platforms/linux64GccDPInt32Opt/lib/libOpenFOAM.so(_ZNK4Foam10GAMGSolver5solveERNS_5FieldIdEERKS2_h+0x4bc)[0x7fcc34f6983c]
[acl:3337259] [ 6] /opt/openfoam9/platforms/linux64GccDPInt32Opt/lib/libOpenFOAM.so(_ZNK4Foam10GAMGSolver6VcycleERKNS_7PtrListINS_9lduMatrix8smootherEEERNS_5FieldIdEERKS8_S9_S9_S9_S9_S9_RNS1_IS8_EESD_h+0x1035)[0x7f436d254d05]
[acl:3337258] [ 5] /opt/openfoam9/platforms/linux64GccDPInt32Opt/lib/libOpenFOAM.so(_ZNK4Foam10GAMGSolver5solveERNS_5FieldIdEERKS2_h+0x4bc)[0x7f436d25683c]
[acl:3337258] [ 6] /opt/openfoam9/platforms/linux64GccDPInt32Opt/lib/libfiniteVolume.so(_ZN4Foam8fvMatrixIdE15solveSegregatedERKNS_10dictionaryE+0x18b)[0x7fcc367643cb]
[acl:3337259] [ 7] interFoam(_ZN4Foam8fvMatrixIdE5solveERKNS_10dictionaryE+0x1e8)[0x5647d6bff0b8]
[acl:3337259] [ 8] interFoam(_ZN4Foam8fvMatrixIdE5solveEv+0xf6)[0x5647d6bff336]
[acl:3337259] [ 9] interFoam(+0xfec62)[0x5647d6c2ec62]
[acl:3337259] [10] interFoam(+0x501d3)[0x5647d6b801d3]
[acl:3337259] [11] /lib/x86_64-linux-gnu/libc.so.6(__libc_start_main+0xf3)[0x7fcc3450b0b3]
[acl:3337259] [12] interFoam(+0x5303e)[0x5647d6b8303e]
[acl:3337259] *** End of error message ***
/opt/openfoam9/platforms/linux64GccDPInt32Opt/lib/libfiniteVolume.so(_ZN4Foam8fvMatrixIdE15solveSegregatedERKNS_10dictionaryE+0x18b)[0x7f436ea513cb]
[acl:3337258] [ 7] interFoam(_ZN4Foam8fvMatrixIdE5solveERKNS_10dictionaryE+0x1e8)[0x55c150d220b8]
[acl:3337258] [ 8] interFoam(_ZN4Foam8fvMatrixIdE5solveEv+0xf6)[0x55c150d22336]
[acl:3337258] [ 9] interFoam(+0xfec62)[0x55c150d51c62]
[acl:3337258] [10] interFoam(+0x501d3)[0x55c150ca31d3]
[acl:3337258] [11] /lib/x86_64-linux-gnu/libc.so.6(__libc_start_main+0xf3)[0x7f436c7f80b3]
[acl:3337258] [12] interFoam(+0x5303e)[0x55c150ca603e]
[acl:3337258] *** End of error message ***
--------------------------------------------------------------------------
Primary job  terminated normally, but 1 process returned
a non-zero exit code. Per user-direction, the job has been aborted.
--------------------------------------------------------------------------
--------------------------------------------------------------------------
mpirun noticed that process rank 5 with PID 0 on node acl exited on signal 8 (Floating point exception).
--------------------------------------------------------------------------

